      1 'GENROE'  1       5         0.07      0.9       0.09      4.28      0.0000    1.84      1.75      0.41      0.6       0.2       0.12     0.11     0.39       /
	  1 'IEEEX1'  1       0.04       75.0       0.05       1.0      1.0     3.9     -3.9      0.0     0.5     0.07     1.0     0.0     2.47      0.035      4.5      0.47  /
      3 'GENCLS' 1     0.0000       0.0000    /