      1 'WT4G1'  1       0.02       0.02       0.4       0.9       1.11       1.2       2.0       2.0       0.02       /
      3 'GENCLS' 1     0.0000       0.0000    /