0,   100.00, 33, 0, 1, 50.00     / PSS(R)E-33.4    TUE, JUL 06 2021   9:47
LANDSNET
ISLAND-2010
   801,'ESK2 CABLE  ',  66.0000,1,   1,   1,   1,0.96698, -23.6605,1.10000,0.90000,1.10000,0.90000
  1009,'BUR CABLE   ',  66.0000,1,   1,   1,   1,0.97987,  -4.5850,1.10000,0.90000,1.10000,0.90000
  1010,'BURFELL     ', 220.0000,1,   1,   1,   1,1.04898,  -8.8442,1.10000,0.90000,1.10000,0.90000
  1011,'BURFE-12    ',  13.8000,2,   1,   4,   1,0.99000,  -1.5271,1.10000,0.90000,1.10000,0.90000
  1012,'BURFE-34    ',  13.8000,2,   1,   4,   1,0.99000,  -1.6027,1.10000,0.90000,1.10000,0.90000
  1013,'BURFE-56    ',  13.8000,2,   1,   4,   1,1.06500,  -3.8402,1.10000,0.90000,1.10000,0.90000
  1014,'BUR66SP5    ',  66.0000,1,   1,   1,   1,0.98007,  -4.5522,1.10000,0.90000,1.10000,0.90000
  1015,'BUR11SP5    ',  11.0000,1,   1,   1,   1,0.98515,  -2.6478,1.10000,0.90000,1.10000,0.90000
  1017,'BUR66SP4    ',  66.0000,1,   1,   1,   1,0.98007,  -4.5522,1.10000,0.90000,1.10000,0.90000
  1018,'BUR11SP4    ',  11.0000,1,   1,   1,   1,0.98463,  -2.7859,1.10000,0.90000,1.10000,0.90000
  1020,'SIGALDA     ', 220.0000,1,   1,   1,   1,1.06313,  -6.5530,1.10000,0.90000,1.10000,0.90000
  1021,'SIGALD12    ',  10.5000,2,   1,   4,   1,0.98000,  -0.3046,1.10000,0.90000,1.10000,0.90000
  1022,'SIGALD22    ',  10.5000,2,   1,   4,   1,0.98000,  -0.3046,1.10000,0.90000,1.10000,0.90000
  1023,'SIGALD32    ',  10.5000,2,   1,   4,   1,0.98000,  -0.3046,1.10000,0.90000,1.10000,0.90000
  1024,'SIGALDA6    ', 132.0000,1,   1,   1,   1,1.06521,  -9.3391,1.10000,0.90000,1.10000,0.90000
  1025,'SIGHR11     ',  11.0000,1,   1,   1,   1,1.06353,  -7.6920,1.10000,0.90000,1.10000,0.90000
  1026,'SIG_TEINASPL', 220.0000,1,   1,   1,   1,1.06313,  -6.5530,1.10000,0.90000,1.10000,0.90000
  1030,'HRAUNEY     ', 220.0000,1,   1,   1,   1,1.06173,  -6.6600,1.10000,0.90000,1.10000,0.90000
  1031,'HRAUNE12    ',  13.8000,3,   1,   4,   1,1.00000,   0.0000,1.10000,0.90000,1.10000,0.90000
  1032,'HRAUNE22    ',  13.8000,3,   1,   4,   1,1.00000,   0.0000,1.10000,0.90000,1.10000,0.90000
  1033,'HRAUNE32    ',  13.8000,3,   1,   4,   1,1.00000,   0.0000,1.10000,0.90000,1.10000,0.90000
  1040,'VATNSFEL    ', 220.0000,1,   1,   1,   1,1.06511,  -6.3717,1.10000,0.90000,1.10000,0.90000
  1041,'VATN-V1     ',  11.0000,2,   1,   4,   1,1.01000,  -1.0699,1.10000,0.90000,1.10000,0.90000
  1042,'VATN-V2     ',  11.0000,2,   1,   4,   1,1.01000,  -1.0699,1.10000,0.90000,1.10000,0.90000
  1050,'SULTARTA    ', 220.0000,1,   1,   1,   1,1.04651,  -8.9748,1.10000,0.90000,1.10000,0.90000
  1051,'SULT-V1     ',  11.0000,2,   1,   4,   1,1.05400,  -3.2921,1.10000,0.90000,1.10000,0.90000
  1052,'SULT-V2     ',  11.0000,2,   1,   4,   1,1.05400,  -4.1085,1.10000,0.90000,1.10000,0.90000
  1060,'BUDARHALS   ', 220.0000,1,   1,   1,   1,1.05002,  -6.9194,1.10000,0.90000,1.10000,0.90000
  1061,'BUD_V1      ',  11.0000,2,   1,   1,   1,1.05000,  -6.9170,1.10000,0.90000,1.10000,0.90000
  1062,'BUD_V2      ',  11.0000,2,   1,   1,   1,1.05000,  -6.9170,1.10000,0.90000,1.10000,0.90000
  1065,'LANGALDA    ', 220.0000,1,   1,   1,   1,1.05305,  -7.6020,1.10000,0.90000,1.10000,0.90000
  1078,'FLU_33KV    ',  33.0000,1,   1,   1,   1,0.92689, -11.2300,1.10000,0.90000,1.10000,0.90000
  1079,'HLA CABLE   ',  66.0000,1,   1,   1,   1,0.93317, -10.7599,1.10000,0.90000,1.10000,0.90000
  1080,'HVOLSVOLLUR ',  66.0000,1,   1,   2,   1,0.93244, -11.0079,1.10000,0.90000,1.10000,0.90000
  1081,'FLUDIR      ',  66.0000,1,   1,   2,   1,0.94370,  -8.1089,1.10000,0.90000,1.10000,0.90000
  1082,'HELLA       ',  66.0000,1,   1,   2,   1,0.93314, -10.8060,1.10000,0.90000,1.10000,0.90000
  1083,'FLU CABLE   ',  66.0000,1,   1,   1,   1,0.94375,  -8.0994,1.10000,0.90000,1.10000,0.90000
  1084,'FLU2 CABLE  ',  66.0000,1,   1,   1,   1,0.94369,  -8.1184,1.10000,0.90000,1.10000,0.90000
  1085,'FLU_11KV    ',  11.0000,1,   1,   1,   1,0.93071, -10.5144,1.10000,0.90000,1.10000,0.90000
  1086,'HELLA_11KV  ',  11.0000,1,   1,   1,   1,0.92277, -14.4883,1.10000,0.90000,1.10000,0.90000
  1087,'HVOLSV_11KV ',  11.0000,1,   1,   1,   1,0.96609, -12.8532,1.10000,0.90000,1.10000,0.90000
  1088,'HVOLSV_DUMMY',  19.0000,1,   1,   1,   1,0.95266, -12.0961,1.10000,0.90000,1.10000,0.90000
  1089,'RIMCABLE    ',  66.0000,1,   1,   1,   1,0.91184, -14.3352,1.10000,0.90000,1.10000,0.90000
  1090,'RIMAKOT     ',  66.0000,1,   1,   1,   1,0.91178, -14.3438,1.10000,0.90000,1.10000,0.90000
  1091,'RIMAKOT     ',  33.0000,1,   1,   1,   1,0.96164, -20.1156,1.10000,0.90000,1.10000,0.90000
  1092,'VEM_FORGANGS',  33.0000,1,   1,   1,   1,0.94865, -22.0953,1.10000,0.90000,1.10000,0.90000
  1093,'VM3_JARDSTR1',  33.0000,1,   1,   1,   1,0.95950, -20.5047,1.10000,0.90000,1.10000,0.90000
  1094,'VM3_JARDSTR2',  33.0000,1,   1,   1,   1,0.94934, -21.9823,1.10000,0.90000,1.10000,0.90000
  1095,'VEM_BRAEDSLA',  33.0000,1,   1,   1,   1,0.94864, -22.1323,1.10000,0.90000,1.10000,0.90000
  1096,'VM1_RIM_ENDI',  33.0000,1,   1,   1,   1,0.95997, -20.4340,1.10000,0.90000,1.10000,0.90000
  1097,'VM1_VEM_ENDI',  33.0000,1,   1,   1,   1,0.94969, -21.9850,1.10000,0.90000,1.10000,0.90000
  1098,'VEM_KETILL  ',  33.0000,1,   1,   1,   1,0.94824, -22.1618,1.10000,0.90000,1.10000,0.90000
  1100,'IRAFOSS2    ', 220.0000,1,   1,   1,   1,1.03276, -12.6363,1.10000,0.90000,1.10000,0.90000
  1110,'IRAFOSS     ', 132.0000,1,   1,   1,   1,1.03910, -13.5637,1.10000,0.90000,1.10000,0.90000
  1111,'IRAFO-12    ',  10.5000,2,   1,   4,   1,1.01000,  -9.7527,1.10000,0.90000,1.10000,0.90000
  1112,'IRAFO-22    ',  10.5000,2,   1,   4,   1,1.01000, -11.5330,1.10000,0.90000,1.10000,0.90000
  1113,'IRAFO-32    ',  10.5000,2,   1,   4,   1,1.01000, -11.7244,1.10000,0.90000,1.10000,0.90000
  1114,'IRAFOSS5    ',  66.0000,1,   1,   1,   1,1.02807, -13.6242,1.10000,0.90000,1.10000,0.90000
  1119,'SP5DELTA    ',  11.0000,1,   1,   4,   1,1.03507, -12.9924,1.10000,0.90000,1.10000,0.90000
  1120,'STEINKA     ',  66.0000,1,   1,   1,   1,1.03172, -13.3943,1.10000,0.90000,1.10000,0.90000
  1121,'STEING1     ',   6.6000,2,   1,   4,   1,1.05000, -11.2266,1.10000,0.90000,1.10000,0.90000
  1122,'STEING2     ',   6.6000,2,   1,   4,   1,1.05000, -11.2409,1.10000,0.90000,1.10000,0.90000
  1126,'ST-SPOLD    ',   6.6000,1,   1,   4,   1,1.03172, -13.3943,1.10000,0.90000,1.10000,0.90000
  1130,'LJOSIFOSS   ',  66.0000,1,   1,   1,   1,1.02785, -13.6209,1.10000,0.90000,1.10000,0.90000
  1131,'LJOS-VEL    ',   6.6000,2,   1,   4,   1,1.03000, -11.0918,1.10000,0.90000,1.10000,0.90000
  1134,'STN1        ',  11.0000,1,   1,   4,   1,0.99922, -17.6655,1.10000,0.90000,1.10000,0.90000
  1136,'HVERAGERDI  ',  66.0000,1,   1,   2,   1,1.02038, -14.1135,1.10000,0.90000,1.10000,0.90000
  1137,'HVERAG_11KV ',  11.0000,1,   1,   1,   1,1.01179, -15.5717,1.10000,0.90000,1.10000,0.90000
  1139,'KOLVID_B    ', 220.0000,1,   2,   1,   1,1.03176, -11.7702,1.10000,0.90000,1.10000,0.90000
  1140,'KOLVID_A    ', 220.0000,1,   2,   1,   1,1.03176, -11.7702,1.10000,0.90000,1.10000,0.90000
  1141,'HELLIS_V1   ',  11.0000,2,   2,   3,   1,1.04000,  -6.0199,1.10000,0.90000,1.10000,0.90000
  1142,'HELLIS_V2   ',  11.0000,2,   2,   3,   1,1.04000,  -6.0199,1.10000,0.90000,1.10000,0.90000
  1143,'HELLIS_V11  ',  11.0000,2,   2,   3,   1,1.04000,  -8.2195,1.10000,0.90000,1.10000,0.90000
  1144,'HELLIS_V3   ',  11.0000,2,   2,   3,   1,1.04000,  -6.2950,1.10000,0.90000,1.10000,0.90000
  1145,'HELLIS_V4   ',  11.0000,2,   2,   3,   1,1.04000,  -6.2950,1.10000,0.90000,1.10000,0.90000
  1146,'HELLIS_V5   ',  11.0000,2,   2,   3,   1,1.04000,  -5.6208,1.10000,0.90000,1.10000,0.90000
  1147,'HELLIS_V6   ',  11.0000,2,   2,   3,   1,1.04000,  -5.6208,1.10000,0.90000,1.10000,0.90000
  1148,'THORLAK_11KV',  11.0000,1,   1,   1,   1,1.00855, -15.7126,1.10000,0.90000,1.10000,0.90000
  1149,'THORLAKHOFN ',  66.0000,1,   2,   1,   1,1.01602, -14.3991,1.10000,0.90000,1.10000,0.90000
  1150,'SEL_SKERDANL',  66.0000,1,   2,   1,   1,1.00187, -14.8810,1.10000,0.90000,1.10000,0.90000
  1151,'SEL_FORGANGS',  33.0000,1,   2,   2,   1,0.93633, -23.5260,1.10000,0.90000,1.10000,0.90000
  1200,'NESJAV      ', 132.0000,1,   2,   1,   1,1.03038, -15.0812,1.10000,0.90000,1.10000,0.90000
  1201,'NESV-VEL 1  ',  11.0000,2,   2,   3,   1,1.03000, -14.1737,1.10000,0.90000,1.10000,0.90000
  1202,'NESV-VEL 2  ',  11.0000,2,   2,   3,   1,1.03000, -14.1571,1.10000,0.90000,1.10000,0.90000
  1203,'NESV-VEL 3  ',  11.0000,2,   2,   3,   1,1.03000, -14.1280,1.10000,0.90000,1.10000,0.90000
  1204,'NESV-VEL 4  ',  11.0000,2,   2,   3,   1,1.03000, -14.0907,1.10000,0.90000,1.10000,0.90000
  1210,'GRAFNING    ', 132.0000,1,   2,   1,   1,1.03016, -15.1159,1.10000,0.90000,1.10000,0.90000
  1220,'BRINGUR     ', 132.0000,1,   2,   1,   1,1.02710, -15.7945,1.10000,0.90000,1.10000,0.90000
  2010,'GEITHALS    ', 220.0000,1,   2,   1,   1,1.02242, -14.7574,1.10000,0.90000,1.10000,0.90000
  2011,'GE-132      ', 132.0000,1,   2,   1,   1,1.02624, -15.6640,1.10000,0.90000,1.10000,0.90000
  2012,'GE-11SP1    ',  11.0000,1,   2,   1,   1,1.02453, -15.2358,1.10000,0.90000,1.10000,0.90000
  2013,'GE-11SP2    ',  11.0000,1,   2,   1,   1,1.02453, -15.2358,1.10000,0.90000,1.10000,0.90000
  2017,'RR-A5       ', 132.0000,1,   2,   1,   1,1.02284, -16.0103,1.10000,0.90000,1.10000,0.90000
  2018,'RR-A12      ', 132.0000,1,   2,   1,   1,1.02431, -15.8591,1.10000,0.90000,1.10000,0.90000
  2022,'IS1         ', 220.0000,1,   2,  10,   1,1.01721, -15.9105,1.10000,0.90000,1.10000,0.90000
  2023,'IS2         ', 220.0000,1,   2,  10,   1,1.01721, -15.9105,1.10000,0.90000,1.10000,0.90000
  2030,'KORPA       ', 132.0000,1,   2,   1,   1,1.02532, -15.9629,1.10000,0.90000,1.10000,0.90000
  2050,'HAMR        ', 220.0000,1,   2,   1,   1,1.01878, -15.6287,1.10000,0.90000,1.10000,0.90000
  2051,'HAM         ', 132.0000,1,   2,   1,   1,1.02599, -15.6497,1.10000,0.90000,1.10000,0.90000
  2052,'HAM-DSP1    ',  11.0000,1,   2,   1,   1,1.02282, -15.6396,1.10000,0.90000,1.10000,0.90000
  2053,'HAM-DSP2    ',  11.0000,1,   2,   1,   1,1.02130, -15.6378,1.10000,0.90000,1.10000,0.90000
  2061,'RH          ', 132.0000,1,   2,   1,   1,1.02546, -15.6954,1.10000,0.90000,1.10000,0.90000
  2062,'RH-11       ',  11.0000,1,   2,   6,   1,1.01908, -20.8088,1.10000,0.90000,1.10000,0.90000
  2090,'SANDSKEI    ', 220.0000,1,   2,   1,   1,1.02735, -13.9343,1.10000,0.90000,1.10000,0.90000
  2100,'BRENNIME    ', 220.0000,1,   2,   1,   1,1.00902, -20.6730,1.10000,0.90000,1.10000,0.90000
  2101,'BREN-132    ', 132.0000,1,   2,   1,   1,1.01719, -20.4959,1.10000,0.90000,1.10000,0.90000
  2103,'BRENN-11    ',  11.0000,1,   2,   2,   1,1.00631, -21.7167,1.10000,0.90000,1.10000,0.90000
  2105,'SP5_ROFAREIT',  33.0000,1,   1,   1,   1,1.01754, -20.5104,1.10000,0.90000,1.10000,0.90000
  2106,'BRE_6,3     ',   6.3000,1,   1,   1,   1,1.01731, -20.5001,1.10000,0.90000,1.10000,0.90000
  2107,'BRENN-66    ',  66.0000,1,   2,   1,   1,1.02592, -22.0130,1.10000,0.90000,1.10000,0.90000
  2108,'BRESP3DE    ',  11.0000,1,   2,   1,   1,1.02592, -22.0130,1.10000,0.90000,1.10000,0.90000
  2109,'BRE_33      ',  33.0000,1,   5,   1,   1,1.01743, -20.5042,1.10000,0.90000,1.10000,0.90000
  2110,'AKRANES     ',  66.0000,1,   2,   1,   1,1.02134, -22.3192,1.10000,0.90000,1.10000,0.90000
  2111,'A20-6       ',   6.3000,1,   2,   3,   1,1.04677, -23.4111,1.10000,0.90000,1.10000,0.90000
  2120,'KLAFASTAÐIR ', 220.0000,1,   2,  12,   1,1.00655, -21.1539,1.10000,0.90000,1.10000,0.90000
  2121,'SVC_16KV    ',  16.0000,1,   1,   1,   1,1.01931, -21.2019,1.10000,0.90000,1.10000,0.90000
  2122,'KLA_LOFTLINA', 220.0000,1,   1,   1,   1,1.00655, -21.1539,1.10000,0.90000,1.10000,0.90000
  2140,'FESI        ', 220.0000,1,   2,  11,   1,1.00744, -20.9570,1.10000,0.90000,1.10000,0.90000
  2160,'NA_A        ', 220.0000,1,   2,  12,   1,1.00616, -21.2191,1.10000,0.90000,1.10000,0.90000
  2161,'NA_B        ', 220.0000,1,   2,  12,   1,1.00616, -21.2191,1.10000,0.90000,1.10000,0.90000
  2200,'A1          ', 132.0000,1,   2,   3,   1,1.02331, -16.0591,1.10000,0.90000,1.10000,0.90000
  2201,'A1-11       ',  11.0000,1,   2,   3,   1,1.02570, -18.5930,1.10000,0.90000,1.10000,0.90000
  2210,'A2          ', 132.0000,1,   2,   3,   1,1.02372, -16.0774,1.10000,0.90000,1.10000,0.90000
  2220,'A3          ', 132.0000,1,   2,   3,   1,1.02350, -16.0518,1.10000,0.90000,1.10000,0.90000
  2231,'A4-11       ',  11.0000,1,   2,   3,   1,1.03486, -19.6685,1.10000,0.90000,1.10000,0.90000
  2240,'A5          ', 132.0000,1,   2,   3,   1,1.02281, -16.0099,1.10000,0.90000,1.10000,0.90000
  2241,'A5-11       ',  11.0000,1,   2,   3,   1,1.05683, -19.4519,1.10000,0.90000,1.10000,0.90000
  2251,'A6-11       ',  11.0000,1,   2,   3,   1,1.02927, -19.5534,1.10000,0.90000,1.10000,0.90000
  2260,'A7          ', 132.0000,1,   2,   3,   1,1.02449, -16.0335,1.10000,0.90000,1.10000,0.90000
  2261,'A7-11       ',  11.0000,1,   2,   3,   1,1.01800, -18.9951,1.10000,0.90000,1.10000,0.90000
  2300,'FITJAR      ', 132.0000,1,   2,   1,   1,1.02239, -13.1157,1.10000,0.90000,1.10000,0.90000
  2301,'SVARTSENGI  ', 132.0000,1,   2,   5,   1,1.02526, -11.8849,1.10000,0.90000,1.10000,0.90000
  2302,'SVARTS_VEL3 ',  11.0000,2,   2,   5,   1,1.03000,  -9.7636,1.10000,0.90000,1.10000,0.90000
  2303,'FITJAR_33KV ',  33.0000,1,   1,   1,   1,1.01783, -13.9939,1.10000,0.90000,1.10000,0.90000
  2304,'STA         ', 132.0000,1,   1,   1,   1,1.02176, -13.2170,1.10000,0.90000,1.10000,0.90000
  2305,'STA_33KV    ',  33.0000,1,   1,   1,   1,1.02065, -18.8147,1.10000,0.90000,1.10000,0.90000
  2320,'RAUDIMELUR  ', 132.0000,1,   2,   1,   1,1.02412, -12.2282,1.10000,0.90000,1.10000,0.90000
  2330,'REYKJANES   ', 132.0000,1,   2,   5,   1,1.02756, -10.3719,1.10000,0.90000,1.10000,0.90000
  2332,'REYKJAV1    ',  11.0000,2,   2,   5,   1,1.03000,  -5.9251,1.10000,0.90000,1.10000,0.90000
  2333,'REYKJAV2    ',  11.0000,2,   2,   5,   1,1.03000,  -5.9251,1.10000,0.90000,1.10000,0.90000
  2336,'SVARTVEL    ',  11.0000,2,   2,   5,   1,1.03000,  -6.5186,1.10000,0.90000,1.10000,0.90000
  2350,'VALLARHEIDI ',  33.0000,1,   1,   1,   1,1.01572, -14.1319,1.10000,0.90000,1.10000,0.90000
  3120,'VATNSHAM    ', 132.0000,1,   3,   1,   1,1.02161, -20.2037,1.10000,0.90000,1.10000,0.90000
  3121,'VATNS-66    ',  66.0000,1,   3,   1,   1,1.01885, -21.4144,1.10000,0.90000,1.10000,0.90000
  3122,'VATNSH19    ',  11.0000,1,   3,   2,   1,1.02007, -20.8758,1.10000,0.90000,1.10000,0.90000
  3123,'VATNSH-S    ',   0.4150,1,   3,   2,   1,1.02007, -20.8758,1.10000,0.90000,1.10000,0.90000
  3124,'VAT_19KV    ',  19.0000,1,   1,   1,   1,1.00607, -23.4958,1.10000,0.90000,1.10000,0.90000
  3130,'VEGAMOT     ',  66.0000,1,   3,   1,   1,0.97665, -24.6899,1.10000,0.90000,1.10000,0.90000
  3131,'VEG_11KV    ',  19.0000,1,   1,   1,   1,1.00492, -25.1022,1.10000,0.90000,1.10000,0.90000
  3140,'OLAFSVIK    ',  66.0000,1,   3,   1,   1,0.95948, -25.9651,1.10000,0.90000,1.10000,0.90000
  3141,'OLA_19KV    ',  19.0000,1,   1,   1,   1,0.98299, -28.8408,1.10000,0.90000,1.10000,0.90000
  3150,'VOGASKEI    ',  66.0000,1,   3,   1,   1,0.96170, -25.2973,1.10000,0.90000,1.10000,0.90000
  3151,'VOG_11KV    ',  11.0000,1,   1,   1,   1,1.00397, -26.7391,1.10000,0.90000,1.10000,0.90000
  3160,'GRUNDARF    ',  66.0000,1,   3,   1,   1,0.95072, -25.9631,1.10000,0.90000,1.10000,0.90000
  3161,'GRU_19KV    ',  19.0000,1,   1,   1,   1,1.00040, -27.8376,1.10000,0.90000,1.10000,0.90000
  3170,'ANDAKILL    ',  66.0000,2,   2,   1,   1,1.02020, -21.3516,1.10000,0.90000,1.10000,0.90000
  3200,'GLERASKO    ', 132.0000,1,   3,   1,   1,1.05348, -19.2136,1.10000,0.90000,1.10000,0.90000
  3201,'GLERA-19    ',  19.0000,1,   3,   2,   1,1.04841, -20.0551,1.10000,0.90000,1.10000,0.90000
  3203,'GLERA-D1    ',  11.0000,1,   3,   2,   1,1.04841, -20.0551,1.10000,0.90000,1.10000,0.90000
  3210,'GEIRADAL    ', 132.0000,1,   3,   1,   1,1.06937, -20.8993,1.10000,0.90000,1.10000,0.90000
  3211,'GEIRADA3    ',  19.0000,1,   3,   7,   1,1.06812, -21.5767,1.10000,0.90000,1.10000,0.90000
  3212,'GEIRADA4    ',  33.0000,1,   3,   7,   1,1.06937, -21.5441,1.10000,0.90000,1.10000,0.90000
  3300,'MJOLKA      ', 132.0000,1,   3,   1,   1,1.05265, -23.0717,1.10000,0.90000,1.10000,0.90000
  3301,'MJOLK-66    ',  66.0000,1,   3,   7,   1,1.02649, -28.0347,1.10000,0.90000,1.10000,0.90000
  3303,'MJOLKVEL    ',   6.3000,2,   3,   7,   1,1.08000, -24.4023,1.10000,0.90000,1.10000,0.90000
  3304,'MJO_V2      ',   6.3000,2,   3,   7,   1,1.08000, -24.4023,1.10000,0.90000,1.10000,0.90000
  3305,'MJODUMMY    ',  33.0000,1,   3,   7,   1,1.07075, -26.1274,1.10000,0.90000,1.10000,0.90000
  3310,'BREIDIDALUR ',  66.0000,1,   3,   1,   1,0.99090, -30.2173,1.10000,0.90000,1.10000,0.90000
  3311,'KELDEYRI33  ',  33.0000,1,   1,   1,   1,0.99355, -36.1691,1.10000,0.90000,1.10000,0.90000
  3313,'PATREKSFJORD',  66.0000,1,   1,   1,   1,0.98467, -30.7272,1.10000,0.90000,1.10000,0.90000
  3320,'ISAFJORDUR  ',  66.0000,1,   3,   1,   1,0.97368, -31.2997,1.10000,0.90000,1.10000,0.90000
  3321,'PATREKSF11  ',  11.0000,1,   1,   1,   1,0.97389, -32.4855,1.10000,0.90000,1.10000,0.90000
  3330,'BOLUNGAVIK  ',  66.0000,1,   3,   1,   1,0.97622, -31.1988,1.10000,0.90000,1.10000,0.90000
  3333,'BOL_SKERÐANL',  11.0000,1,   1,   1,   1,0.96460, -33.3836,1.10000,0.90000,1.10000,0.90000
  3340,'KELDEYRI66  ',  66.0000,1,   3,   1,   1,0.99661, -30.2110,1.10000,0.90000,1.10000,0.90000
  3341,'HRAFSEYRI   ',  33.0000,1,   1,   1,   1,1.04094, -27.2252,1.10000,0.90000,1.10000,0.90000
  3342,'ÞINGEYRI    ',  33.0000,1,   1,   1,   1,1.02220, -27.9935,1.10000,0.90000,1.10000,0.90000
  3351,'THINGEYRI11 ',  11.0000,1,   1,   1,   1,1.02220, -27.9935,1.10000,0.90000,1.10000,0.90000
  3361,'BREIDAD33   ',  33.0000,1,   1,   1,   1,0.98934, -29.4782,1.10000,0.90000,1.10000,0.90000
  3362,'FLATEYRI    ',  19.0000,1,   1,   1,   1,0.97195, -32.3452,1.10000,0.90000,1.10000,0.90000
  3363,'BREIDAD11   ',  11.0000,1,   1,   1,   1,0.98994, -29.7735,1.10000,0.90000,1.10000,0.90000
  3366,'BREIDAD0,7  ',   0.7000,1,   1,   1,   1,0.97667, -31.5158,1.10000,0.90000,1.10000,0.90000
  3370,'ISA_SKERDANL',  11.0000,1,   1,   1,   1,0.99683, -33.9154,1.10000,0.90000,1.10000,0.90000
  3371,'ISA_FORGANGS',  11.0000,1,   1,   1,   1,0.99683, -33.9154,1.10000,0.90000,1.10000,0.90000
  3380,'BILDUDALUR33',  33.0000,1,   1,   1,   1,0.94819, -39.6494,1.10000,0.90000,1.10000,0.90000
  3381,'BOL_FORGANGS',  11.0000,1,   1,   1,   1,0.96460, -33.3836,1.10000,0.90000,1.10000,0.90000
  3390,'HOLMAVIK    ',  33.0000,1,   1,   1,   1,1.06172, -22.3764,1.10000,0.90000,1.10000,0.90000
  4010,'HRUTATUN    ', 132.0000,1,   3,   1,   1,1.04133, -17.9119,1.10000,0.90000,1.10000,0.90000
  4011,'HRUTA-19    ',  19.0000,1,   3,   2,   1,1.03413, -19.1439,1.10000,0.90000,1.10000,0.90000
  4013,'HRUTA-D1    ',  11.0000,1,   3,   2,   1,1.03413, -19.1439,1.10000,0.90000,1.10000,0.90000
  4020,'LAXARVAT    ', 132.0000,1,   4,   1,   1,1.03613, -12.4461,1.10000,0.90000,1.10000,0.90000
  4021,'LAXAVA-2    ',  11.0000,1,   4,   2,   1,1.02711, -14.1666,1.10000,0.90000,1.10000,0.90000
  4022,'LAXAVA-4    ',  33.0000,1,   1,   1,   1,1.03028, -13.5699,1.10000,0.90000,1.10000,0.90000
  4030,'BLANDA A    ', 132.0000,1,   4,   1,   1,1.03561,  -9.8923,1.10000,0.90000,1.10000,0.90000
  4031,'BLANDAV1    ',  11.0000,2,   4,   4,   1,1.03000,  -6.3060,1.10000,0.90000,1.10000,0.90000
  4032,'BLANDAV2    ',  11.0000,2,   4,   4,   1,1.03000,  -6.3329,1.10000,0.90000,1.10000,0.90000
  4033,'BLANDAV3    ',  11.0000,2,   4,   4,   1,1.03000,  -6.2970,1.10000,0.90000,1.10000,0.90000
  4036,'BLANDA B    ', 132.0000,1,   4,   1,   1,1.03561,  -9.8923,1.10000,0.90000,1.10000,0.90000
  4040,'VARMAHLI    ', 132.0000,1,   4,   1,   1,1.03088, -12.2392,1.10000,0.90000,1.10000,0.90000
  4041,'VARMAHL4    ',  66.0000,1,   4,   1,   1,1.02229, -13.9794,1.10000,0.90000,1.10000,0.90000
  4042,'VARMAHL2    ',  11.0000,1,   4,   2,   1,1.02254, -13.8879,1.10000,0.90000,1.10000,0.90000
  4045,'SAUDARKR    ',  66.0000,1,   4,   1,   1,1.01164, -14.4078,1.10000,0.90000,1.10000,0.90000
  4050,'RANG        ', 132.0000,1,   4,   1,   1,1.00402, -18.4054,1.10000,0.90000,1.10000,0.90000
  4051,'RANGARV5    ',  66.0000,1,   4,   1,   1,0.99564, -20.1438,1.10000,0.90000,1.10000,0.90000
  4052,'RANGARV1    ',   6.6000,1,   4,   8,   1,0.99798, -19.6989,1.10000,0.90000,1.10000,0.90000
  4053,'RANG-11     ',  11.0000,1,   4,   8,   1,0.97857, -22.9907,1.10000,0.90000,1.10000,0.90000
  4055,'BECROMAL    ',  11.0000,1,   4,  14,   1,0.98845, -20.5826,1.10000,0.90000,1.10000,0.90000
  4056,'BECROMAL132 ', 132.0000,1,   4,  14,   1,1.00324, -18.4770,1.10000,0.90000,1.10000,0.90000
  4058,'DALVIK      ',  66.0000,1,   4,   1,   1,0.98526, -21.3769,1.10000,0.90000,1.10000,0.90000
  4059,'RANG-C      ', 132.0000,1,   1,   8,   1,1.00402, -18.4054,1.10000,0.90000,1.10000,0.90000
  4060,'KRAFLA      ', 132.0000,1,   4,   1,   1,1.03044, -14.4886,1.10000,0.90000,1.10000,0.90000
  4061,'KRAFLAV1    ',  11.0000,2,   4,   4,   1,1.04000,  -8.7284,1.10000,0.90000,1.10000,0.90000
  4062,'KRAFLA11    ',  11.0000,2,   4,   1,   1,1.04000,  -8.7318,1.10000,0.90000,1.10000,0.90000
  4065,'KRAFLA2     ', 132.0000,1,   4,   1,   1,1.03044, -14.4886,1.10000,0.90000,1.10000,0.90000
  4100,'LAXA        ',  66.0000,1,   4,   1,   1,1.04251, -17.1816,1.10000,0.90000,1.10000,0.90000
  4101,'LAXA-2      ',  11.0000,2,   4,   4,   1,1.00000, -15.5086,1.10000,0.90000,1.10000,0.90000
  4102,'LAXA33      ',  33.0000,1,   4,   4,   1,1.03991, -17.7102,1.10000,0.90000,1.10000,0.90000
  4104,'LAXA11      ',  11.0000,1,   4,   4,   1,1.03355, -18.7309,1.10000,0.90000,1.10000,0.90000
  4105,'LAXA2       ',   6.3000,2,   4,   4,   1,1.04434, -13.8601,1.10000,0.90000,1.10000,0.90000
  4108,'HUSAVIK     ',  33.0000,1,   4,   1,   1,1.03794, -17.8224,1.10000,0.90000,1.10000,0.90000
  4110,'LINDAB      ',  66.0000,1,   4,   2,   1,1.04333, -18.2264,1.10000,0.90000,1.10000,0.90000
  4120,'KOPASKER    ',  66.0000,1,   4,   1,   1,1.03125, -19.3479,1.10000,0.90000,1.10000,0.90000
  4121,'THEISTAREYK ',  66.0000,1,   1,   1,   1,1.04376, -18.2772,1.10000,0.90000,1.10000,0.90000
  4122,'THEYSTAR_11 ',  11.0000,1,   1,   1,   1,1.04204, -18.4040,1.10000,0.90000,1.10000,0.90000
  5009,'GRIMSARVIRKJ',   6.3000,1,   1,   1,   1,0.96612, -23.2024,1.10000,0.90000,1.10000,0.90000
  5010,'HRYGG       ', 132.0000,1,   5,   1,   1,1.01069, -18.1191,1.10000,0.90000,1.10000,0.90000
  5011,'STUDLAR_132 ', 132.0000,1,   5,   1,   1,1.00680, -18.3531,1.10000,0.90000,1.10000,0.90000
  5013,'STUDLAR_11  ',  11.0000,1,   1,   1,   1,0.96927, -24.6658,1.10000,0.90000,1.10000,0.90000
  5014,'STUDLAR_66  ',  66.0000,1,   5,   1,   1,0.98313, -22.2631,1.10000,0.90000,1.10000,0.90000
  5015,'EGILSSTADIR ',  33.0000,1,   1,   1,   1,0.96612, -23.2024,1.10000,0.90000,1.10000,0.90000
  5016,'EYVIND      ', 132.0000,1,   5,   1,   1,0.99170, -18.1830,1.10000,0.90000,1.10000,0.90000
  5017,'EYVIND66    ',  66.0000,1,   5,   1,   1,1.03156, -19.5381,1.10000,0.90000,1.10000,0.90000
  5018,'EYV-DELT    ',  11.0000,1,   5,   1,   1,1.01727, -21.7479,1.10000,0.90000,1.10000,0.90000
  5019,'LF1_KAPALL  ',  66.0000,1,   5,   1,   1,1.03349, -19.3356,1.10000,0.90000,1.10000,0.90000
  5020,'TEIG        ', 132.0000,1,   5,   1,   1,1.01699, -16.6178,1.10000,0.90000,1.10000,0.90000
  5021,'TEIGHO.2    ',  11.0000,1,   5,   2,   1,1.02985, -20.2963,1.10000,0.90000,1.10000,0.90000
  5022,'TEIG-33     ',  33.0000,1,   5,   2,   1,1.06541, -19.5854,1.10000,0.90000,1.10000,0.90000
  5024,'DIESEL_11KV ',  11.0000,1,   1,   1,   1,1.04289, -13.4499,1.10000,0.90000,1.10000,0.90000
  5025,'FISKM_HOFN  ',  11.0000,1,   1,   1,   1,1.04289, -13.4499,1.10000,0.90000,1.10000,0.90000
  5026,'STU CABLE   ',  66.0000,1,   1,   1,   1,0.98304, -22.2751,1.10000,0.90000,1.10000,0.90000
  5027,'HOF_SKERDANL', 132.0000,1,   1,   1,   1,1.04283, -13.4486,1.10000,0.90000,1.10000,0.90000
  5030,'HOLAR       ', 132.0000,1,   5,   1,   1,1.04314, -13.3994,1.10000,0.90000,1.10000,0.90000
  5031,'HOLAR-11    ',  11.0000,1,   5,   2,   1,1.04576, -12.9880,1.10000,0.90000,1.10000,0.90000
  5034,'HOLAR-SC    ', 132.0000,1,   5,   1,   1,1.03159, -22.1859,1.10000,0.90000,1.10000,0.90000
  5035,'HOLAR-19    ',  19.0000,1,   5,   2,   1,1.05027, -11.1805,1.10000,0.90000,1.10000,0.90000
  5036,'SMYRLA 19   ',  19.0000,1,   1,   1,   1,1.05027, -11.1805,1.10000,0.90000,1.10000,0.90000
  5037,'SMYRLA_6,3  ',   6.3000,1,   1,   1,   1,1.06377,  -7.5123,1.10000,0.90000,1.10000,0.90000
  5038,'AEGISSIDA   ', 132.0000,1,   1,   1,   1,1.04285, -13.4433,1.10000,0.90000,1.10000,0.90000
  5039,'HOF_FORGANGS', 132.0000,1,   1,   1,   1,1.04283, -13.4486,1.10000,0.90000,1.10000,0.90000
  5040,'PRES        ', 132.0000,1,   5,   1,   1,1.05643, -13.4840,1.10000,0.90000,1.10000,0.90000
  5041,'PREST-19    ',  19.0000,1,   5,   2,   1,1.05110, -14.4179,1.10000,0.90000,1.10000,0.90000
  5050,'FLJ_KERFIVOR', 132.0000,1,   1,   1,   1,1.02214, -17.5728,1.10000,0.90000,1.10000,0.90000
  5051,'FLJOTSDA    ', 132.0000,1,   5,   1,   1,1.02213, -17.5729,1.10000,0.90000,1.10000,0.90000
  5052,'FLJ_11      ',  11.0000,1,   5,   4,   1,1.02517, -17.4795,1.10000,0.90000,1.10000,0.90000
  5053,'FLJ_V1_CABLE', 220.0000,1,   1,   1,   1,1.03038, -17.3079,1.10000,0.90000,1.10000,0.90000
  5054,'FLJ_V2_CABLE', 220.0000,1,   1,   1,   1,1.03038, -17.3076,1.10000,0.90000,1.10000,0.90000
  5055,'FLJ_V3_CABLE', 220.0000,1,   1,   1,   1,1.03038, -17.3074,1.10000,0.90000,1.10000,0.90000
  5056,'FLJ_V4_CABLE', 220.0000,1,   1,   1,   1,1.03039, -17.3067,1.10000,0.90000,1.10000,0.90000
  5057,'FLJ_V5_CABLE', 220.0000,1,   1,   1,   1,1.03039, -17.3064,1.10000,0.90000,1.10000,0.90000
  5058,'FLJ_V6_CABLE', 220.0000,1,   1,   1,   1,1.03039, -17.3062,1.10000,0.90000,1.10000,0.90000
  5059,'FLJ_220_B   ', 220.0000,1,   5,   1,   1,1.03025, -17.3240,1.10000,0.90000,1.10000,0.90000
  5060,'FLJ_220_A   ', 220.0000,1,   5,   1,   1,1.03025, -17.3240,1.10000,0.90000,1.10000,0.90000
  5061,'KARA_V1     ',  11.0000,2,   5,   4,   1,1.03000, -13.1384,1.10000,0.90000,1.10000,0.90000
  5062,'KARA_V2     ',  11.0000,2,   5,   4,   1,1.03000, -13.1401,1.10000,0.90000,1.10000,0.90000
  5063,'KARA_V3     ',  11.0000,2,   5,   4,   1,1.03000, -13.1398,1.10000,0.90000,1.10000,0.90000
  5064,'KARA_V4     ',  11.0000,2,   5,   4,   1,1.03000, -13.1389,1.10000,0.90000,1.10000,0.90000
  5065,'KARA_V5     ',  11.0000,2,   5,   4,   1,1.03000, -13.1386,1.10000,0.90000,1.10000,0.90000
  5066,'KARA_V6     ',  11.0000,2,   5,   4,   1,1.03000, -13.1396,1.10000,0.90000,1.10000,0.90000
  5071,'AUX_1       ',  11.0000,1,   5,  13,   1,1.00131, -26.0219,1.10000,0.90000,1.10000,0.90000
  5072,'DIODE_1     ',  69.0000,1,   5,  13,   1,1.01178, -26.1640,1.10000,0.90000,1.10000,0.90000
  5073,'DIODE_2     ',  69.0000,1,   5,  13,   1,1.01178, -26.1640,1.10000,0.90000,1.10000,0.90000
  5074,'DIODE_3     ',  69.0000,1,   5,  13,   1,1.01178, -26.1640,1.10000,0.90000,1.10000,0.90000
  5075,'DIODE_4     ',  69.0000,1,   5,  13,   1,1.01178, -26.1640,1.10000,0.90000,1.10000,0.90000
  5076,'DIODE_5     ',  69.0000,1,   5,  13,   1,1.01178, -26.1640,1.10000,0.90000,1.10000,0.90000
  5077,'AUX_2       ',  11.0000,1,   5,  13,   1,1.00131,   3.9781,1.10000,0.90000,1.10000,0.90000
  5078,'DIODE_6     ',  69.0000,1,   5,  13,   1,1.01178, -26.1640,1.10000,0.90000,1.10000,0.90000
  5080,'ESK CABLE   ',  66.0000,1,   1,   1,   1,0.96636, -23.7382,1.10000,0.90000,1.10000,0.90000
  5081,'ESK_SKERDANL',  11.0000,1,   1,   1,   1,0.96688, -26.4764,1.10000,0.90000,1.10000,0.90000
  5082,'ESK_FORGANGS',  11.0000,1,   1,   1,   1,0.96688, -26.4764,1.10000,0.90000,1.10000,0.90000
  5083,'ESK CABLE   ',  66.0000,1,   1,   1,   1,0.96681, -23.6944,1.10000,0.90000,1.10000,0.90000
  5086,'FASKRUDSFJ  ',  33.0000,1,   1,   1,   1,0.95730, -24.5671,1.10000,0.90000,1.10000,0.90000
  5087,'FAS_FORGANGS',  11.0000,1,   1,   1,   1,0.95225, -25.3137,1.10000,0.90000,1.10000,0.90000
  5088,'STOÐVARFJORD',  33.0000,1,   1,   1,   1,0.93878, -24.5313,1.10000,0.90000,1.10000,0.90000
  5089,'STOÐVARFJ   ',  11.0000,1,   1,   1,   1,0.91321, -34.2725,1.10000,0.90000,1.10000,0.90000
  5090,'ESKIFJOR    ',  66.0000,1,   5,   1,   1,0.96656, -23.7177,1.10000,0.90000,1.10000,0.90000
  5091,'FASKRUDS    ',  66.0000,1,   5,   1,   1,0.96276, -23.4689,1.10000,0.90000,1.10000,0.90000
  5092,'NESKAUPS    ',  66.0000,1,   5,   1,   1,0.93149, -26.3896,1.10000,0.90000,1.10000,0.90000
  5093,'NES_FORGANGS',  11.0000,1,   1,   1,   1,0.96090, -29.5282,1.10000,0.90000,1.10000,0.90000
  5094,'FAS_SKERDANL',  11.0000,1,   1,   1,   1,0.95225, -25.3137,1.10000,0.90000,1.10000,0.90000
  5095,'BREIDDALSVIK',  33.0000,1,   1,   1,   1,0.96599, -23.7342,1.10000,0.90000,1.10000,0.90000
  5096,'BREIDDALSVIK',  11.0000,1,   1,   1,   1,0.94514, -26.4234,1.10000,0.90000,1.10000,0.90000
  5097,'NES_SKERDANL',  11.0000,1,   1,   1,   1,0.96090, -29.5282,1.10000,0.90000,1.10000,0.90000
  5098,'NES CABLE   ',  66.0000,1,   1,   1,   1,0.93233, -26.2953,1.10000,0.90000,1.10000,0.90000
  5099,'FAS CABLE   ',  66.0000,1,   1,   1,   1,0.96289, -23.4529,1.10000,0.90000,1.10000,0.90000
  5100,'SEYDISFJORDU',  66.0000,1,   5,   1,   1,1.03253, -18.9293,1.10000,0.90000,1.10000,0.90000
  5101,'SEY_FORGANGS',  11.0000,1,   1,   1,   1,1.01031, -18.1280,1.10000,0.90000,1.10000,0.90000
  5102,'SR-MJOL     ',  66.0000,1,   5,   1,   1,1.03238, -19.0572,1.10000,0.90000,1.10000,0.90000
  5105,'BJOLFSVIRKJU',   6.3000,2,   1,   1,   1,1.03707, -14.0829,1.10000,0.90000,1.10000,0.90000
  5106,'GULSVIRKJUN ',   6.3000,2,   1,   1,   1,1.03000, -15.5422,1.10000,0.90000,1.10000,0.90000