      1 'GENROE'  1       5         0.07      0.9       0.09      4.28      0.0000    1.84      1.75      0.41      0.6       0.2       0.12     0.11     0.39       /
	  1 'IEEET1'  1       0.02       200.0       0.001       2.0      -2.0     0.1     0.55      0.06     1.0     0.0     2.85     0.3     3.8      0.6   /
      3 'GENCLS' 1     0.0000       0.0000    /