      1 'GENROE'  1       5         0.05      0.7       0.1       4.00      0.0000    1.41      1.35      0.30      0.6       0.2       0.12     0.10     0.50       /
	  1 'ESAC1A'    1       0.04       2.0       10.0       400.0       0.02    9.0       -5.34       0.8       0.03      1.0       0.2      0.48      1.0       5.25        0.03       7.0      0.1       3.0       -3.0     /
      3 'GENCLS' 1     0.0000       0.0000    /