      1 'REGCAU1'  1     1    0.017      10.0      0.1      0.05      1.22      1.2      0.2      0.05      -1.3      0.02      0.7      99.0      -99.0.      0.7    /
      1 'REECCU1'  1     0     1     1     0     0     -99.0       99.0       0.01       -0.05       0.05       15.0       0.75       -0.75       1.0       0.05       0.75       -0.75       1.1       0.9       0.0       1.0       0.0       1.0       0.017       99.0       -99.0       1.0       -0.667       1.11       0.017       0.0       0.75       0.2       0.75       0.5       0.75       1.0       0.75       0.2       1.11       0.5       1.11       0.75       1.11       1.0       1.11       999.0       0.5       0.8.       0.2     /
      3 'GENCLS' 1     0.0000       0.0000    /