      1 'WT4G1'  1       0.02       0.02       0.4       0.9       1.11       1.2       2.0       2.0       0.02       /
      1 'WT4E1'  1       0      0      1      0     0.15       18.0       5.0       0.05       0.15       0.0       0.08       0.48       -0.47       1.1       0.1       0.5       -0.5       0.05       0.15       0.9       1.1       120       0.05       0.05       1.7       1.11       1.11    /
      3 'GENCLS' 1     0.0000       0.0000    /