      1 'GENROU'  1       5.0     0.05     0.7     0.1     4.0     0.0     1.41     1.35     0.3     0.6     0.2     0.12     0.1     0.5      /
	  1 'GGOV1'  1      0       0       0.04     1.0     0.05     -0.05     10.0     2.0     0.0     1.0     1.0     0.15     0.5     1.5     0.2     0.1     0.0     0.0     3.0     2.0     0.67     1.0     0.0     0.1     -0.1     0.0     0.1     10.0     0.1     0.0     0.0     4.0     5.0     99.0     -99.0      /
      3 'GENCLS' 1     0.0000       0.0000    /
