      1 'GENROE'  1       5         0.07      0.9       0.09      4.28      0.0000    1.84      1.75      0.41      0.6       0.2       0.12     0.11     0.39       /
	  1 'TGOV1'  1       0.04       0.4       0.86       0.3       2.0       6.0       0       /
      3 'GENCLS' 1     0.0000       0.0000    /
