      1 'GENROE'  1       5         0.07      0.9       0.09      4.28      0.0000    1.84      1.75      0.41      0.6       0.2       0.12     0.11     0.39       /
	  1 'EXAC2'  1       0.005       0.005       0.005       400      0.02     9.0     -5.34     2.0     4.0     -4.0     0.8     1.0     2.0     0.03     1.0     0.2     0.48     1.0     10.0     5.25    0.03    7.0    0.1 /
      3 'GENCLS' 1     0.0000       0.0000    /

