      1 'GENROE'  1       5         0.07      0.9       0.09      4.28      0.0000    1.84      1.75      0.41      0.6       0.2       0.12     0.11     0.39       /
	  1 'EXNI'  1       0.06       150.0       0.0       4.0      -4.0     0.011     0.4     0.7     0.0     10.0     /
      3 'GENCLS' 1     0.0000       0.0000    /