      1 'GENROU'  1       6.9       0.06      1.5       0.3       7.79      0.0000    1.18      1.27      0.15      0.407     0.083     0.064     0.155     0.58       /
	  1 'AC7B'    1       0.0       9.0       1.5       2.2       0.0167    5.5       -5.5      1.0       0.005     5.5       -5.5      1.0       99.0      0.0       0.0       0.0       1.0       0.0       0.0       1.0       0.8       5.5       0.0       
          2.75      0.08      3.8       0.3        /
      3 'GENCLS' 1     0.0000       0.0000    /
