137921 'WT4G1'   '1'       0.02      0.02      0.4       0.9       1.11      1.2       2.0       2.0       0.02       /
137924 'WT4G1'   '1'       0.02      0.02      0.4       0.9       1.11      1.2       2.0       2.0       0.02       /
125033    'GENSAL'  '1'       5.0       0.037     0.092     1.613     0.0       0.611     0.409     0.195     0.153     0.086
    0.16      0.53       /   
125033    'IEEET1'  '1'       0.02      270.0     0.025     3.95      -3.22     1.0       0.05      0.028     0.909     0.0
      3.75      0.0827    5.0       2.333      /   
125190    'ESST1A'  '1'       1         1         0.0       999.0     -999.0    1.0       12.0      0.0       0.0       360.0     0.0       999.0     -999.0    5.09      -5.17     0.059     0.0       1.0       0.0       0.0        /
125190    'GENROU'  '1'       4.0       0.032     0.53      0.062     2.82      0.0       1.77      1.69      0.245     0.44
     0.195     0.14      0.092     0.416      /   
125192    'ESST1A'  '2'       1         1         0.0       999.0     -999.0    1.0       12.0      0.0       0.0       360.0     0.0       999.0     -999.0    5.09      -5.17     0.059     0.0       1.0       0.0       0.0        /
125192    'GENROU'  '2'       4.0       0.032     0.53      0.062     2.82      0.0       1.77      1.69      0.245     0.44
     0.195     0.14      0.092     0.416      /   
126251    'GENROU'  '1'       11.7      0.035     0.44      0.092     2.71      0         1.16      1.16      0.12      0.3
      0.1       0.07      0.1       0.49       /   
126251    'IEEEG1'  '1'       0         '0'       20        0.1       0         0.25      0.1       -1        0.85      0
        0.25      0.5       0         7.5       0.5       0         0         0         0         0         0         0          /
126251    'IEEET1'  '1'       0.06      50        0.06      1         -1        0         0.67      0.1       1         0         3
        0.09      4         0.3        /   
126251    'GENROU'  '2'       7.2       0.04      0.32      0.097     8.12      0         1.2       1.11      0.19      0.4
      0.13      0.08      0.05      0.25       /   
126251    'IEEET1'  '2'       0.06      50        0.06      1         -1        0         0.67      0.1       1         0         3
        0.09      4         0.3        /   
126252    'GENROU'  '1'       8.17      0.056     0.91      0.106     2.4       0         1.262     1.223     0.156     0.287
    0.093     0.065     0.1       0.49       /  
126252    'IEEEG1'  '1'       0         '0'       20        0.1       0         0.25      0.1       -1        0.92      0
        0.25      0.5       0         7.5       0.5       0         0         0         0         0         0         0          /
126252    'IEEET1'  '1'       0.06      50        0.06      1         -1        0         0.67      0.1       1         0         3
        0.09      4         0.3        /  
126252    'GENROU'  '2'       8.17      0.056     0.91      0.106     2.4       0         1.262     1.223     0.156     0.287
    0.093     0.065     0.05      0.25       /   
126252    'IEEET1'  '2'       0.06      50        0.06      1         -1        0         0.67      0.1       1         0         3
        0.09      4         0.3        /  
126328    'GAST'    '1'       0.05      0.4       0.1       3.0       0.9       2.0       1.0       -0.05     0.0        /   
126328    'GENROU'  '1'       4.87      0.023     0.37      0.063     9.5       0.0       1.43      1.345     0.275     0.409
    0.152     0.127     0.118     0.463      /   
126328    'ESAC2A'  '1'      0.03      0.03      0.03      3.0       0.03      8.05      -8.05     7.2       105.0     -85.0     0.34      5.001     0.08      0.03      1.2       0.283     0.368     1.0       3.3       0.0103    4.4       0.758      /  
126329    'GAST'    '1'       0.05      0.4       0.1       3.0       0.9       2.0       1.0       -0.05     0.0        /   
126329    'GENROU'  '1'       4.87      0.023     0.37      0.063     9.5       0.0       1.43      1.345     0.275     0.409
    0.152     0.127     0.118     0.463      /  
126329    'ESAC2A'  '1'      0.03      0.03      0.03      3.0       0.03      8.05      -8.05     7.2       105.0     -85.0     0.34      5.001     0.08      0.03      1.2       0.283     0.368     1.0       3.3       0.0103    4.4       0.758      /  
126359    'TGOV1'   '1'       0.80147   0.50000   1.0000    0.0000    1.5000    5.0000    0.0000     /
126359    'ESST1A'  '1'       1         1         0.02      0.133     -0.133    1         7         0.02      0.016     350
      0.003     6.460     -6.170    6.460     -6.170    0.089     0.0       1         0         0          /  
126359    'GENROU'  '1'       5.2       0.03      1.5       0.03      1.33      0.0       2.38      2.15      0.25      0.35
     0.17      0.13      0.43      0.46       /   
126379    'GENROU'  '1'       4.0       0.031     0.45      0.061     1.882     0.0       1.65      1.56      0.325     0.445
    0.25      0.205     0.11      0.27       /  
126379    'IEEEG1'  '1'       126379    '2'       20.0      0.15      0.0       0.2       0.1       -1.0      1.91      0.0
      0.25      0.25      0.0       7.5       0.25      0.0       0.4       0.0       0.5       9999.0    0.0       0.0        /   
126379    'IEEET1'  '1'       0.06      25.0      0.2       1.0       -1.0      0.0       0.57      0.0912    0.35      0.0
      2.9625    0.078     3.95      0.304      /  
126379    'GENROU'  '2'       5.1       0.035     0.34      0.068     6.88      0.0       1.71      1.65      0.44      0.595
    0.3       0.23      0.09      0.32       /   
126379    'IEEET1'  '2'       0.06      25.0      0.2       1.0       -1.0      0.0       0.516     0.0826    0.35      0.0
      3.274     0.0705    4.365     0.275      /   
126468    'ESST4B'  '1'       0         3.77      3.77      1         -0.80     0.01      1         0         1         -0.80     0
        5.31      0         6.64      0.09      0         0          /   
126468    'GENROU'  '1'       5.94      0.035     0.54      0.072     5.813     0         1.76      1.66      0.22      0.405
    0.165     0.125     0.068     0.581      /   
126468    'PSS2B'   '1'       1         0         3         0         5         1         4.0       4.0       0.0       4.0
      0.0       4.0       0.344     1.0       0.5       0.1       15.0      0.25      0.03      0.10      0.025     0.0       0.0
          99.0      -99.0     99.0      -99.0     0.1       -0.1       /  
126469    'ESST4B'  '1'       0         3.77      3.77      1         -0.80     0.01      1         0         1         -0.80     0
        5.31      0         6.64      0.09      0         0          /   
126469    'GENROU'  '1'       5.94      0.035     0.54      0.072     5.813     0         1.76      1.66      0.22      0.405
    0.165     0.125     0.068     0.581      /   
126469    'PSS2B'   '1'       1         0         3         0         5         1         4.0       4.0       0.0       4.0
      0.0       4.0       0.344     1.0       0.5       0.1       15.0      0.25      0.03      0.10      0.025     0.0       0.0
          99.0      -99.0     99.0      -99.0     0.1       -0.1       /   
126650    'ESDC1A'  '1'       0.0000    120.00    0.50000E-01         0.0000    0.0000    2.1800    -2.1800   0.0000    0.85000
  0.90000E-01         1.5000    0.0000    4.1850    0.20400   5.5800    0.58900    /  
126650    'GENROU'  '1'       4.1000    0.30000E-01         0.51000   0.55000E-01         3.7700    0.0000    1.7500    1.6900
   0.28000   0.48000   0.22500   0.17000   0.60000E-01         0.30000    /   
126650    'TGOV1'   '1'       0.50000E-01         0.49000   1.0000    0.0000    3.0000    9.0000    0.20000E-01          /
126651    'ESAC1A'  '2'       0.0       0.0       0.0       339.9     0.02      21.86     -21.86    1.058     0.0154    1.2       0.018     1.064     1.0       7.197     0.262     5.398     0.0553    9.107     -8.196     /
126651    'GENROU'  '2'       7.7       0.033     0.42      0.052     3.36      0.0       1.895     1.787     0.41      0.608
    0.305     0.235     0.154     0.78       /   
126652    'EXST1'   '1'       0.0       999.0     -999.0    0.0       0.0       400.0     0.06775   7.08      -5.66     0.0
      0.01051   0.738      /   
126652    'GENROE'  '1'       5.5       0.12      0.7       0.042     1.23      0.0       2.6       1.92      0.35      0.7
      0.265     0.17      0.1979    0.3207     /   
126652    'GAST'    '1'       0.092     0.1       150       3         0.9       2         1         -0.05     0          /
126652    'IEESGO'  '2'       0.0       0.0       0.02      0.654     13.73     0.44      18.30     0.712     0.643     0.9148    0.0        /
126652    'EXST1'   '2'       0.0       999.0     -999.0    0.0       0.0       500.0     0.06289   5.98      -4.78     0.0
      0.0083    0.795      /   
126652    'GENROE'  '2'       5.941     0.053     0.660     0.076     4.79      1.0       1.258     1.228     0.352     0.489
    0.235     0.191     0.056     0.355      /   
126653    'ESDC1A'  '1'       0.60000E-01         50.000    0.20000   0.0000    0.0000    1.0000    -1.0000   0.0000    0.57000
  0.10000   1.0000    0.0000    2.9600    0.78000E-01         3.9500    0.30400    /   
126653    'GENROU'  '1'       4.0000    0.31000E-01         0.45000   0.61000E-01         1.9000    0.0000    1.6500    1.5600
   0.32500   0.44500   0.25000   0.20500   0.11000   0.27000    /   
126653    'IEEEG1'  '1'       126653    '2'       15.640    0.15000   0.0000    0.20000   0.10000   -1.0000   0.85      0.0000
   0.25000   0.50000   0.0000    7.5000    0.50000   0.0000    0.40000   0.0000    1.0035    0.0000    0.0000    0.0000     /   
126653    'ESDC1A'  '2'       0.60000E-01         50.000    0.20000   0.0000    0.0000    1.0000    -1.0000   0.0000    0.51600
  0.10000   1.0000    0.0000    3.2740    0.70500E-01         4.3650    0.27500    /   
126653    'GENROU'  '2'       5.1000    0.35000E-01         0.34000   0.68000E-01         6.9000    0.0000    1.7100    1.6500
   0.44000   0.59500   0.30000   0.23000   0.88280E-01         0.37930    /   
126654    'ESDC1A'  '1'       0.60000E-01         50.000    0.20000   0.0000    0.0000    1.0000    -1.0000   0.0000    0.57000   0.10000   1.0000    0.0000    2.9600    0.78000E-01         3.9500    0.30400    /
126654    'GENROU'  '1'       4.0       0.031     0.45      0.061     1.882     0.0       1.65      1.56      0.325     0.445
    0.25      0.205     0.11      0.27       /   
126654    'IEEEG1'  '1'       126654    '2'       20.0      0.15      0.0       0.2       0.1       -1.0      1.91      0.0
      0.25      0.25      0.0       7.5       0.25      0.0       0.4       0.0       0.5       9999.0    0.0       0.0        /   
126654    'ESDC1A'  '2'       0.60000E-01         50.000    0.20000   0.0000    0.0000    1.0000    -1.0000   0.0000    0.57000   0.10000   1.0000    0.0000    2.9600    0.78000E-01         3.9500    0.30400    /
126654    'GENROU'  '2'       5.1       0.035     0.34      0.068     6.88      0.0       1.71      1.65      0.44      0.595
    0.3       0.23      0.09      0.32       /   
126656    'IEEET1'  '1'       0.0       150.0     0.2       2.48      -2.48     0.0       0.803     0.05      0.5       0.0       2.79      0.08      3.72      0.38       /
126656    'GENROE'  '1'       7.5       0.049     0.4       0.049     2.3       0.0       1.3       1.22      0.24      0.4
      0.2       0.114     0.157     0.45       /   
126656    'IEEEG1'  '1'       126656    '2'       34.5      0.1       0.0       0.3       0.1       -1.0      1.71      -0.0212
  0.25      0.25      0.0       4.4       0.25      0.0       0.4       0.0       0.5       0.0       0.0       0.0        /  
126656    'IEEET1'  '2'       0.0       150.0     0.2       2.72      -2.72     0.0       0.83      0.05      0.5       0.0       3.075     0.11      4.1       0.43       /
126656    'GENROE'  '2'       7.0       0.041     0.6       0.041     7.68      0.0       1.73      1.4       0.42      0.7
      0.36      0.221     0.075     0.275      /   
126657    'ESST1A'  '1'       3         0         0.02      999       -999      1.0       4.28      0.10      0.088     300.0
    0.003     6.78      -5.76     6.78      -5.76     0.0       0.0       0.001     0         0          /   
126657    'GENROU'  '1'       3.6       0.031     0.46      0.056     1.59      0.0       1.65      1.58      0.275     0.475
    0.22      0.16      0.08      0.41       /   
126657    'IEEEG1'  '1'       126657    '2'       20.0      0.15      0.0       0.2       0.1       -1.0      1.84      0.0
      0.25      0.25      0.0       7.5       0.25      0.0       0.4       0.0       0.5       9999.0    0.0       0.0        /   
126657    'ESST1A'  '2'       3         0         0.02      999       -999      1.0       4.28      0.10      0.088     300.0
    0.003     6.78      -5.76     6.78      -5.76     0.0       0.0       0.001     0         0          /   
126657    'GENROU'  '2'       7.3       0.038     0.4       0.061     6.62      0.0       1.63      1.59      0.34      0.52
     0.225     0.165     0.09      0.42       /   
126658    'ESST1A'  '1'       3         0         0.02      999       -999      1.0       4.28      0.10      0.088     300.0
    0.003     6.78      -5.76     6.78      -5.76     0.0       0.0       0.001     0         0          /  
126658    'GENROU'  '1'       3.6       0.031     0.46      0.056     1.59      0.0       1.65      1.58      0.275     0.475
    0.22      0.16      0.08      0.41       /   
126658    'IEEEG1'  '1'       126658    '2'       20.0      0.15      0.0       0.2       0.1       -1.0      1.84      0.0
      0.25      0.25      0.0       7.5       0.25      0.0       0.4       0.0       0.5       9999.0    0.0       0.0        /   
126658    'ESST1A'  '2'       3         0         0.02      999       -999      1.0       4.28      0.10      0.088     300.0
    0.003     6.78      -5.76     6.78      -5.76     0.0       0.0       0.001     0         0          /  
126658    'GENROU'  '2'       7.3       0.053     1.158     0.082     6.62      0.0       1.639     1.61      0.369     0.5594
   0.2476    0.205     0.098     0.426      /   
126659    'EXST1'   '1'       0.01      0.2       -0.20     1.0       10.0      200.0     0.01      6.2       0.0       0.15
     0.0       1.0        /   
126659    'GENROU'  '1'       8.5       0.04      0.57      0.082     6.102     0.0       2.05      1.95      0.24      0.445
    0.175     0.13      0.0731    0.3945     /   
126664    'EXST1'   '1'       0.01      0.2       -0.20     1.0       10.0      200.0     0.01      6.2       0.0       0.15
     0.0       1.0        /   
126664    'GENROU'  '1'       5.65      0.021     0.468     0.042     3.39      0.0       2.147     2.047     0.313     0.466
    0.22      0.188     0.1074    0.6716     /   
126676    'GENROU'  '1'       4.011     0.022     0.409     0.051     3.57      0         1.98      1.841     0.217     0.486
    0.148     0.135     0.0625    0.2895     /   
126676    'SEXS'    '1'       0.1       10.0      200.0     0.05      -3.2      4.0        /
126683    'ESST4B'  '1'       0.0       3.12      3.12      1.0       -0.87     0.01      1.0       0.0       1.0       -0.87
    0.0       6.4       0.0       8.01      0.16      0.0       0.0        /   
126683    'GENROU'  '1'       7.3       0.03      1.5       0.15      4.58      0.0       2.068     1.969     0.272     0.513
    0.193     0.151     0.087     0.633      /   
126683    'GAST'    '1'       0.05      0.2       0.6       1.6       1.0       1.1       1.25      0.05      0.0        /
126686    'ESST4B'  '1'       0.0       3.12      3.12      1.0       -0.87     0.01      1.0       0.0       1.0       -0.87
    0.0       6.4       0.0       8.01      0.16      0.0       0.0        /   
126686    'GENROU'  '1'       7.3       0.03      1.5       0.15      4.58      0.0       2.068     1.969     0.272     0.513
    0.193     0.151     0.087     0.633      /   
126686    'GAST'    '1'       0.05      0.2       0.6       1.6       1.0       1.1       1.25      0.05      0.0        /
126692    'ESST4B'  '1'       0.0       3.86      3.86      1.0       -0.87     0.01      1.0       0.0       1.0       -0.87
    0.0       5.18      0.0       6.48      0.08      0.0       0.0        /   
126692    'GENROU'  '1'       6.70      0.039     0.57      0.080     5.126     0.0       2.01      1.91      0.245     0.445
    0.185     0.14      0.0575    0.4411     /   
126692    'PSS2A'   '1'       1         0         3         0         5         1         2.0000    2.0000    0.0000    2.0000
   0.0000    2.0000    0.1820    1.0000    0.5000    0.1000    10.000    0.1500    0.0300    0.1500    0.0300    0.1000    -0.1000
  /
126710    'ESST4B'  '1'       0.0       3.86      3.86      1.0       -0.87     0.01      1.0       0.0       1.0       -0.87
    0.0       5.18      0.0       6.48      0.08      0.0       0.0        /   
126710    'GENROU'  '1'       6.70      0.039     0.57      0.080     5.126     0.0       2.01      1.91      0.245     0.445
    0.185     0.14      0.0575    0.4411     /   
126710    'PSS2A'   '1'       1         0         3         0         5         1         2.0000    2.0000    0.0000    2.0000
   0.0000    2.0000    0.1820    1.0000    0.5000    0.1000    10.000    0.1500    0.0300    0.1500    0.0300    0.1000    -0.1000
  /
126711    'ESST4B'  '1'       0.0       4.11      4.1110    0.99000   -0.87     0.00090000          1.0010    0.0       0.9900    -0.87     0.0       4.8710    0.0       6.08      0.079000  0.0       0.0        /
126711    'GENROU'  '1'       8.915     0.043     0.93      0.065     4.93      0.0       2.17      2.05      0.223     0.497
    0.173     0.152     0.07      0.22       /   
126711    'PSS2A'   '1'       1         0         3         0         4         1         2.0000    2.0000    0.0110    2.0000
   2.0000    0.0110    0.1000    1.0000    0.0000    0.0500    3.0000    0.4000    1.0000    0.1000    0.0500    0.1000    -0.1000
  /
126737    'GAST'    '1'       0.05      0.4       0.1       3.0       0.9       2.0       1.0       -0.05     0.0        /   
126737    'GENROU'  '1'       6.0       0.08      0.21      0.2       2.89      0.0       1.55      1.5       0.21      0.23
     0.12      0.09      0.221     0.714      /   
126737    'ESAC2A'  '1'      0.03      0.03      0.03      3.0       0.03      8.05      -8.05     7.2       105.0     -85.0     0.34      5.001     0.08      0.03      1.2       0.283     0.368     1.0       3.3       0.0103    4.4       0.758      /   
126738    'GAST'    '1'       0.05      0.4       0.1       3.0       0.9       2.0       1.0       -0.05     0.0        /  
126738    'GENROU'  '1'       6.0       0.08      0.21      0.2       2.89      0.0       1.55      1.5       0.21      0.23
     0.12      0.09      0.221     0.714      /   
126738    'ESAC2A'  '1'      0.03      0.03      0.03      3.0       0.03      8.05      -8.05     7.2       105.0     -85.0     0.34      5.001     0.08      0.03      1.2       0.283     0.368     1.0       3.3       0.0103    4.4       0.758      /   
129125    'CSVGN1'  '1'       5         0.01      0         10        0         0.05      0         1         0         36         /
129130    'CSVGN1'  '1'       5         0.01      0         10        0         0.05      0         1         0         8          /
130841    'WT4E1'   '1'       0         0         1         0         0.15      18.0      5.0       0.05      0.1       0.0
      0.08      0.47      -0.47     1.1       0.0       0.5       -0.5      0.05      0.1       0.9       1.1       120.0     0.05
          0.05      1.7       1.11      1.11       /
130841    'WT4G1'   '1'       0.02      0.02      0.4       0.9       1.11      1.2       2.0       2.0       0.02       /
130868    'WT4E1'   'W'       0         0         1         0         0.15      18.0      5.0       0.05      0.1       0.0
      0.08      0.47      -0.47     1.1       0.0       0.5       -0.5      0.05      0.1       0.9       1.1       120.0     0.05
          0.05      1.7       1.11      1.11       /   
130868    'WT4G1'   'W'       0.02      0.02      0.4       0.9       1.11      1.2       2.0       2.0       0.02       /   
130873    'ESST1A'  '1'       2         1         0.0000    0.30000   -0.30000  0.70000   9.7000    1.0000    1.0000    600.00    0.30000E-01         5.2800    -3.8600   5.2800    -3.8600   0.15000   0.0000    1.0000    0.0000    0.0000     /
130873    'GENROE'  '1'       5.254     0.036     0.55      0.072     2.608     0.0       1.917     1.837     0.27      0.473
    0.217     0.161     0.081     0.479      /   
130873    'PSS2B'   '1'       1         0         3         0         5         1         2.0000    2.0000    0.000     2.0000
   0.0000    2.0000    0.38334   1.0000    0.5000    0.10000   10        0.12      0.0200    0.12000   0.20000E-01         0.0000
          0.0000    99.000    -99.000   99.000    -99.000   0.050000  -0.0500    /   
130878    'WT4E1'   'W'       0         0         1         0         0.15      18.0      5.0       0.05      0.1       0.0
      0.08      0.47      -0.47     1.1       0.0       0.5       -0.5      0.05      0.1       0.9       1.1       120.0     0.05
          0.05      1.7       1.11      1.11       /   
130878    'WT4G1'   'W'       0.02      0.02      0.4       0.9       1.11      1.2       2.0       2.0       0.02       /   
130928    'WT4E1'   'W'       0         0         1         0         0.15      18.0      5.0       0.05      0.1       0.0
      0.08      0.47      -0.47     1.1       0.0       0.5       -0.5      0.05      0.1       0.9       1.1       120.0     0.05
          0.05      1.7       1.11      1.11       /   
130928    'WT4G1'   'W'       0.02      0.02      0.4       0.9       1.11      1.2       2.0       2.0       0.02       /   
130929    'WT4E1'   'W'       0         0         1         0         0.15      18.0      5.0       0.05      0.1       0.0
      0.08      0.47      -0.47     1.1       0.0       0.5       -0.5      0.05      0.1       0.9       1.1       120.0     0.05
          0.05      1.7       1.11      1.11       /   
130929    'WT4G1'   'W'       0.02      0.02      0.4       0.9       1.11      1.2       2.0       2.0       0.02       /   
131103    'GENROU'  '1'       10.6      0.05      3.2       0.04      1.2       0.0       2.03      1.86      0.2       0.28
     0.146     0.1       0.087     0.333      /   
131103    'IEEET1'  '1'       0.02      270.0     0.025     3.95      -3.22     1.0       0.05      0.0282    0.909     0.0
      3.75      0.0827    5.0       0.2333     /   
131126    'WT4E1'   '1'       0         0         1         0         0.15      18.0      5.0       0.05      0.1       0.0
      0.08      0.47      -0.47     1.1       0.0       0.5       -0.5      0.05      0.1       0.9       1.1       120.0     0.05
          0.05      1.7       1.11      1.11       /
131126    'WT4G1'   '1'       0.02      0.02      0.4       0.9       1.11      1.2       2.0       2.0       0.02       /
131340    'WT4E1'   'W'       0         0         1         0         0.15      18.0      5.0       0.05      0.1       0.0
      0.08      0.47      -0.47     1.1       0.0       0.5       -0.5      0.05      0.1       0.9       1.1       120.0     0.05
          0.05      1.7       1.11      1.11       /   
131340    'WT4G1'   'W'       0.02      0.02      0.4       0.9       1.11      1.2       2.0       2.0       0.02       /   
131341    'WT4E1'   'W'       0         0         1         0         0.15      18.0      5.0       0.05      0.1       0.0
      0.08      0.47      -0.47     1.1       0.0       0.5       -0.5      0.05      0.1       0.9       1.1       120.0     0.05
          0.05      1.7       1.11      1.11       /   
131341    'WT4G1'   'W'       0.02      0.02      0.4       0.9       1.11      1.2       2.0       2.0       0.02       /   
131375    'WT4E1'   'W'       0         0         1         0         0.15      18.0      5.0       0.05      0.1       0.0
      0.08      0.47      -0.47     1.1       0.0       0.5       -0.5      0.05      0.1       0.9       1.1       120.0     0.05
          0.05      1.7       1.11      1.11       /   
131375    'WT4G1'   'W'       0.02      0.02      0.4       0.9       1.11      1.2       2.0       2.0       0.02       /   
131393    'EXAC2'   '1'       0.028     0.0       0.0       354.0     0.02      66.0      -66.0     1.0       10.0      0.0
      0.55      1.1       0.0       0.0594    1.0       0.0       0.0       1.0       10.0      3.14      1.0       4.19      1.98
     /
131393    'IEESGO'  '1'       8.0000    0.0500    0.0500    0.0500    0.0500    0.0500    20.000    0.0000    0.0000    1.2500    0.6500     /
131393    'GENROU'  '1'       5.83      0.022     0.596     0.044     5.99      0.0       2.176     2.018     0.256     0.359
    0.183     0.159     0.12      0.6        /   
131393    'GENSAL'  '2'       6.74      0.043     0.31      2.18      0.0       1.78      0.96      0.32      0.22      0.16
     0.15      0.38       /   
131393    'IEEEG1'  '2'       0         '0'       20.0      1.0       0.1       0.08      0.1       -1.0      1.0       0.0
      0.05      1.0       0.0       0.0       0.0       0.0       0.0       0.0       0.0       0.0       0.0       0.0        /   
131393    'ESAC2A'  '2'       0.028     0.0000    0.0000    463.00    0.002     66.0      -66.0     1.0000    16.500    0.000     0.55      19.000    0.0000    0.034     1.0000    0.0       0.0       1.0000    4.9       1.04      6.5       1.92       /   
131649    'ESST4B'  '4'       0.0       3.65      3.65      1.0       -0.80     0.01      1.0       0.0       1.0       -0.80
    0.0       5.49      0.0       6.86      0.09      0.0       0.0        /   
131649    'GENROU'  '4'       6.128     0.023     0.496     0.048     4.18      0.0       2.258     2.121     0.287     0.37
     0.187     0.157     0.089     0.67       /   
134854    'WT4E1'   '1'       0         0         1         0         0.15      18.0      5.0       0.05      0.1       0.0
      0.08      0.47      -0.47     1.1       0.0       0.5       -0.5      0.05      0.1       0.9       1.1       120.0     0.05
          0.05      1.7       1.11      1.11       /
134854    'WT4G1'   '1'       0.02      0.02      0.4       0.9       1.11      1.2       2.0       2.0       0.02       /
134862    'GENROU'  '4'       5.8700    0.34000E-01         0.4800    0.85000E-01         4.5200    0.0000    1.3856    1.3211
   0.12750   0.32430   0.08550   0.75000E-01         0.10000   0.86000    /   
134862    'IEEET1'  '4'       0.60000E-01         25.000    0.20000   1.0000    -1.0000   0.0000    0.56800   0.11400   1.1290
   0.0000    3.3800    0.68400E-01         4.5000    0.26670    /   
134862    'IEESGO'  '4'       0.15000   0.0000    0.13000   0.20000   4.9700    0.20000   20.000    0.74700   0.63100   0.98200
  0.24700    /   
135552    'EXST1'   '1'       0.0       1.0       0.0       1.0       10.0      200.0     0.01      5.52      0.0       0.135
    0.0       1.0        /   
135552    'GENROU'  '1'       5.441     0.022     0.568     0.045     6.16      0.0       2.125     1.984     0.26      0.369
    0.184     0.158     0.0793    0.4203     /   
135871    'EXAC2'   '1'       0.028     0.0       0.0       354.0     0.02      66.0      -66.0     1.0       16.5      0.0
      0.55      1.48      0.0       0.0594    1.0       0.0       0.0       1.0       15.5      3.14      1.77      4.19      1.98
     /
135871    'HYGOV'   '1'       0.07      0.56      9.0       0.4       0.33      0.07      1.0       0.0       1.0       1.25      1.0       0.07       /
135871    'GENROU'  '1'       5.838     0.022     0.596     0.044     6.14      0.0       2.176     2.018     0.256     0.359
    0.183     0.159     0.167     0.467      /   
135871    'GENROU'  '2'       6.86      0.034     1.3       0.05      1.58      0.0       1.68      0.92      0.25      0.3
      0.2       0.12      0.15      0.5        /   
135871    'ESAC2A'  '2'       0.028     0.0000    0.0000    463.00    0.002     66.0      -66.0     1.0000    16.500    0.000     0.55      19.000    0.0000    0.034     1.0000    0.0       0.0       1.0000    4.9       1.04      6.5       1.92       /   
136700    'ESAC1A'  '2'       0.0       0.0       0.0       339.9     0.02      21.86     -21.86    1.058     0.0154    1.2       0.018     1.064     1.0       7.197     0.262     5.398     0.0553    9.107     -8.196     /
136700    'GENROU'  '2'       6.735     0.033     0.406     0.049     3.50      0.0       1.83      1.75      0.435     0.6255
   0.325     0.235     0.1450    0.4130     /   
136701    'GENROE'  '1'       6.7       0.032     0.39      0.055     5.193     0.0       1.8       1.65      0.37      0.585
    0.28      0.215     0.076     0.348      /   
136701    'PSS2B'   '1'       1         0         3         0         5         1         3.0       3.0       0.0085    3.0
      0.0       3.0       0.289     1.0       0.5       0.1       10.0      1.00      5.0       0.48      0.03      0.48      0.03
          2.0       -2.0      2.0       -2.0      0.1       -0.05      /   