      1 'GENCLS'  1    6.0000       0.0000    /
      3 'GENCLS' 1     0.0000       0.0000    /
