      1 'GENROU'  1       5         0.07      0.9       0.09      4.28      0.0000    1.84      1.75      0.41      0.6       0.2       0.12     0.11     0.39       /
	  1 'URST5T'  1       0.025       0.1      0.2     1.0     1.0     1.0     10.0     -10.0     0.58     0.3     /
      3 'GENCLS' 1     0.0000       0.0000    /