      1 'GENSAL'  1       5.0       0.07       0.09       4.28      0.0    1.84      1.75      0.41     0.2     0.12     0.11     0.39       /
      4 'CSVGN1'  1       5.0       0.01       0.0       10.0       0.0       0.05       0.0       1.05       0.0       40.0     /
      3 'GENCLS' 1     0.0000       0.0000    /
