      1 'GENROE'  1       5         0.07      0.9       0.09      4.28      0.0000    1.84      1.75      0.41      0.6       0.2       0.12     0.11     0.39       /
	  1 'ST5B'  1       0.0       0.8      6.0     0.08     0.01     200.0     5.0     -4.0     0.001     0.004     2.0      
	  10.0     0.1        0.05      0.1     2.0       0.08       0.08      /
      3 'GENCLS' 1     0.0000       0.0000    /