      1 'REGCAU1'  1     1     0.02      10.0      0.9      0.5      1.22      1.2      0.8      0.4      -1.3      0.02      0.7      9999.0      -9999.0.      1.0     /
      1 'REECBU1'  1     0     0     1     1     0      -99.0      99.0      0.0      -0.05      -0.05      0.0      1.05      -1.05      0.0      0.05      0.436      -0.436      1.1      0.9      0.0      0.1      0.0      40.0      0.02      99.0      -99.0      1.0      0.0      1.82.      0.02/
      3 'GENCLS' 1     0.0000       0.0000    /