75157 'GENROU' C 6.5 0.04 1.1 0.04 2.5 0 1.35 1.3 0.25 0.5 0.21 0.1 0.03 0.4 /
77016 'GENSAL' H 4.8 0.05 0.05 3.525 1 1.75 0.9 0.38 0.21 0.15 0.11 0.4 /
77018 'GENROU' C 6.5 0.04 1.1 0.04 2.5 0 1.35 1.3 0.25 0.5 0.21 0.1 0.03 0.4 /
77019 'GENROU' O 6.5 0.04 1.1 0.04 2.5 0 1.35 1.3 0.25 0.5 0.21 0.1 0.03 0.4 /
77028 'GENROU' C 6.5 0.04 1.1 0.04 2.5 0 1.35 1.3 0.25 0.5 0.21 0.1 0.03 0.4 /
77038 'GENROU' C 6.5 0.04 1.1 0.04 2.5 0 1.35 1.3 0.25 0.5 0.21 0.1 0.03 0.4 /

77048 'GENROU' C 6.5 0.04 1.1 0.04 2.5 0 1.35 1.3 0.25 0.5 0.21 0.1 0.03 0.4 /
77049 'GENROU' O 6.5 0.04 1.1 0.04 2.5 0 1.35 1.3 0.25 0.5 0.21 0.1 0.03 0.4 /

77056 'GENSAL' H 4.8 0.05 0.05 3.525 1 1.75 0.9 0.38 0.21 0.15 0.11 0.4 /

77066 'GENSAL' H 4.8 0.05 0.05 3.525 1 1.75 0.9 0.38 0.21 0.15 0.11 0.4 /
77068 'GENROU' C 6.5 0.04 1.1 0.04 2.5 0 1.35 1.3 0.25 0.5 0.21 0.1 0.03 0.4 /
77069 'GENROU' O 6.5 0.04 1.1 0.04 2.5 0 1.35 1.3 0.25 0.5 0.21 0.1 0.03 0.4 /
77076 'GENSAL' H 4.8 0.05 0.05 3.525 1 1.75 0.9 0.38 0.21 0.15 0.11 0.4 /
77088 'GENROU' C 6.5 0.04 1.1 0.04 2.5 0 1.35 1.3 0.25 0.5 0.21 0.1 0.03 0.4 /
77089 'GENROU' O 6.5 0.04 1.1 0.04 2.5 0 1.35 1.3 0.25 0.5 0.21 0.1 0.03 0.4 /
77098 'GENROU' C 6.5 0.04 1.1 0.04 2.5 0 1.35 1.3 0.25 0.5 0.21 0.1 0.03 0.4 /
77106 'GENSAL' H 4.8 0.05 0.05 3.525 1 1.75 0.9 0.38 0.21 0.15 0.11 0.4 /
77108 'GENROU' C 6.5 0.04 1.1 0.04 2.5 0 1.35 1.3 0.25 0.5 0.21 0.1 0.03 0.4 /


77126 'GENSAL' H 4.8 0.05 0.05 3.525 1 1.75 0.9 0.38 0.21 0.15 0.11 0.4 /
77128 'GENROU' C 6.5 0.04 1.1 0.04 2.5 0 1.35 1.3 0.25 0.5 0.21 0.1 0.03 0.4 /


77148 'GENROU' C 6.5 0.04 1.1 0.04 2.5 0 1.35 1.3 0.25 0.5 0.21 0.1 0.03 0.4 /
77149 'GENROU' O 6.5 0.04 1.1 0.04 2.5 0 1.35 1.3 0.25 0.5 0.21 0.1 0.03 0.4 /

77158 'GENROU' C 6.5 0.04 1.1 0.04 2.5 0 1.35 1.3 0.25 0.5 0.21 0.1 0.03 0.4 /
77188 'GENROU' C 6.5 0.04 1.1 0.04 2.5 0 1.35 1.3 0.25 0.5 0.21 0.1 0.03 0.4 /
77198 'GENROU' C 6.5 0.04 1.1 0.04 2.5 0 1.35 1.3 0.25 0.5 0.21 0.1 0.03 0.4 /
77206 'GENSAL' H 4.8 0.05 0.05 3.525 1 1.75 0.9 0.38 0.21 0.15 0.11 0.4 /

77226 'GENSAL' H 4.8 0.05 0.05 3.525 1 1.75 0.9 0.38 0.21 0.15 0.11 0.4 /
77228 'GENROU' C 6.5 0.04 1.1 0.04 2.5 0 1.35 1.3 0.25 0.5 0.21 0.1 0.03 0.4 /

77236 'GENSAL' H 4.8 0.05 0.05 3.525 1 1.75 0.9 0.38 0.21 0.15 0.11 0.4 /
77238 'GENROU' C 6.5 0.04 1.1 0.04 2.5 0 1.35 1.3 0.25 0.5 0.21 0.1 0.03 0.4 /
77239 'GENROU' O 6.5 0.04 1.1 0.04 2.5 0 1.35 1.3 0.25 0.5 0.21 0.1 0.03 0.4 /

77258 'GENROU' C 6.5 0.04 1.1 0.04 2.5 0 1.35 1.3 0.25 0.5 0.21 0.1 0.03 0.4 /
77259 'GENROU' O 6.5 0.04 1.1 0.04 2.5 0 1.35 1.3 0.25 0.5 0.21 0.1 0.03 0.4 /
77278 'GENROU' C 6.5 0.04 1.1 0.04 2.5 0 1.35 1.3 0.25 0.5 0.21 0.1 0.03 0.4 /
77308 'GENROU' C 6.5 0.04 1.1 0.04 2.5 0 1.35 1.3 0.25 0.5 0.21 0.1 0.03 0.4 /
77316 'GENSAL' H 4.8 0.05 0.05 3.525 1 1.75 0.9 0.38 0.21 0.15 0.11 0.4 /
77318 'GENROU' C 6.5 0.04 1.1 0.04 2.5 0 1.35 1.3 0.25 0.5 0.21 0.1 0.03 0.4 /
77328 'GENROU' C 6.5 0.04 1.1 0.04 2.5 0 1.35 1.3 0.25 0.5 0.21 0.1 0.03 0.4 /

77358 'GENROU' C 6.5 0.04 1.1 0.04 2.5 0 1.35 1.3 0.25 0.5 0.21 0.1 0.03 0.4 /
77368 'GENROU' C 6.5 0.04 1.1 0.04 2.5 0 1.35 1.3 0.25 0.5 0.21 0.1 0.03 0.4 /
77369 'GENROU' O 6.5 0.04 1.1 0.04 2.5 0 1.35 1.3 0.25 0.5 0.21 0.1 0.03 0.4 /
77408 'GENROU' C 6.5 0.04 1.1 0.04 2.5 0 1.35 1.3 0.25 0.5 0.21 0.1 0.03 0.4 /
77416 'GENSAL' H 4.8 0.05 0.05 3.525 1 1.75 0.9 0.38 0.21 0.15 0.11 0.4 /
77488 'GENROU' C 6.5 0.04 1.1 0.04 2.5 0 1.35 1.3 0.25 0.5 0.21 0.1 0.03 0.4 /
77489 'GENROU' O 6.5 0.04 1.1 0.04 2.5 0 1.35 1.3 0.25 0.5 0.21 0.1 0.03 0.4 /

77576 'GENSAL' H 4.8 0.05 0.05 3.525 1 1.75 0.9 0.38 0.21 0.15 0.11 0.4 /
77579 'GENROU' O 6.5 0.04 1.1 0.04 2.5 0 1.35 1.3 0.25 0.5 0.21 0.1 0.03 0.4 /

77616 'GENSAL' H 4.8 0.05 0.05 3.525 1 1.75 0.9 0.38 0.21 0.15 0.11 0.4 /
77618 'GENROU' C 6.5 0.04 1.1 0.04 2.5 0 1.35 1.3 0.25 0.5 0.21 0.1 0.03 0.4 /
77626 'GENSAL' H 4.8 0.05 0.05 3.525 1 1.75 0.9 0.38 0.21 0.15 0.11 0.4 /
77658 'GENROU' C 6.5 0.04 1.1 0.04 2.5 0 1.35 1.3 0.25 0.5 0.21 0.1 0.03 0.4 /

77666 'GENSAL' H 4.8 0.05 0.05 3.525 1 1.75 0.9 0.38 0.21 0.15 0.11 0.4 /
77686 'GENSAL' H 4.8 0.05 0.05 3.525 1 1.75 0.9 0.38 0.21 0.15 0.11 0.4 /
77708 'GENROU' C 6.5 0.04 1.1 0.04 2.5 0 1.35 1.3 0.25 0.5 0.21 0.1 0.03 0.4 /
77786 'GENSAL' H 4.8 0.05 0.05 3.525 1 1.75 0.9 0.38 0.21 0.15 0.11 0.4 /
77819 'GENROU' O 6.5 0.04 1.1 0.04 2.5 0 1.35 1.3 0.25 0.5 0.21 0.1 0.03 0.4 /
77826 'GENSAL' H 4.8 0.05 0.05 3.525 1 1.75 0.9 0.38 0.21 0.15 0.11 0.4 /

77846 'GENSAL' H 4.8 0.05 0.05 3.525 1 1.75 0.9 0.38 0.21 0.15 0.11 0.4 /

77868 'GENROU' C 6.5 0.04 1.1 0.04 2.5 0 1.35 1.3 0.25 0.5 0.21 0.1 0.03 0.4 /
77936 'GENSAL' H 4.8 0.05 0.05 3.525 1 1.75 0.9 0.38 0.21 0.15 0.11 0.4 /

75157 'IEEEX1' C 0.04 75 0.05 1 1 3.9 -3.9 0 0.5 0.07 1 0 2.47 0.035 4.5 0.47 /
77016 'IEEEX1' H 0.04 75 0.05 1 1 3.9 -3.9 0 0.5 0.07 1 0 2.47 0.035 4.5 0.47 /
77018 'IEEEX1' C 0.04 75 0.05 1 1 3.9 -3.9 0 0.5 0.07 1 0 2.47 0.035 4.5 0.47 /
77019 'IEEEX1' O 0.04 75 0.05 1 1 3.9 -3.9 0 0.5 0.07 1 0 2.47 0.035 4.5 0.47 /
77028 'IEEEX1' C 0.04 75 0.05 1 1 3.9 -3.9 0 0.5 0.07 1 0 2.47 0.035 4.5 0.47 /
77038 'IEEEX1' C 0.04 75 0.05 1 1 3.9 -3.9 0 0.5 0.07 1 0 2.47 0.035 4.5 0.47 /

77048 'IEEEX1' C 0.04 75 0.05 1 1 3.9 -3.9 0 0.5 0.07 1 0 2.47 0.035 4.5 0.47 /
77049 'IEEEX1' O 0.04 75 0.05 1 1 3.9 -3.9 0 0.5 0.07 1 0 2.47 0.035 4.5 0.47 /

77056 'IEEEX1' H 0.04 75 0.05 1 1 3.9 -3.9 0 0.5 0.07 1 0 2.47 0.035 4.5 0.47 /

77066 'IEEEX1' H 0.04 75 0.05 1 1 3.9 -3.9 0 0.5 0.07 1 0 2.47 0.035 4.5 0.47 /
77068 'IEEEX1' C 0.04 75 0.05 1 1 3.9 -3.9 0 0.5 0.07 1 0 2.47 0.035 4.5 0.47 /
77069 'IEEEX1' O 0.04 75 0.05 1 1 3.9 -3.9 0 0.5 0.07 1 0 2.47 0.035 4.5 0.47 /
77076 'IEEEX1' H 0.04 75 0.05 1 1 3.9 -3.9 0 0.5 0.07 1 0 2.47 0.035 4.5 0.47 /
77088 'IEEEX1' C 0.04 75 0.05 1 1 3.9 -3.9 0 0.5 0.07 1 0 2.47 0.035 4.5 0.47 /
77089 'IEEEX1' O 0.04 75 0.05 1 1 3.9 -3.9 0 0.5 0.07 1 0 2.47 0.035 4.5 0.47 /
77098 'IEEEX1' C 0.04 75 0.05 1 1 3.9 -3.9 0 0.5 0.07 1 0 2.47 0.035 4.5 0.47 /
77106 'IEEEX1' H 0.04 75 0.05 1 1 3.9 -3.9 0 0.5 0.07 1 0 2.47 0.035 4.5 0.47 /
77108 'IEEEX1' C 0.04 75 0.05 1 1 3.9 -3.9 0 0.5 0.07 1 0 2.47 0.035 4.5 0.47 /


77126 'IEEEX1' H 0.04 75 0.05 1 1 3.9 -3.9 0 0.5 0.07 1 0 2.47 0.035 4.5 0.47 /
77128 'IEEEX1' C 0.04 75 0.05 1 1 3.9 -3.9 0 0.5 0.07 1 0 2.47 0.035 4.5 0.47 /


77148 'IEEEX1' C 0.04 75 0.05 1 1 3.9 -3.9 0 0.5 0.07 1 0 2.47 0.035 4.5 0.47 /
77149 'IEEEX1' O 0.04 75 0.05 1 1 3.9 -3.9 0 0.5 0.07 1 0 2.47 0.035 4.5 0.47 /

77158 'IEEEX1' C 0.04 75 0.05 1 1 3.9 -3.9 0 0.5 0.07 1 0 2.47 0.035 4.5 0.47 /
77188 'IEEEX1' C 0.04 75 0.05 1 1 3.9 -3.9 0 0.5 0.07 1 0 2.47 0.035 4.5 0.47 /
77198 'IEEEX1' C 0.04 75 0.05 1 1 3.9 -3.9 0 0.5 0.07 1 0 2.47 0.035 4.5 0.47 /
77206 'IEEEX1' H 0.04 75 0.05 1 1 3.9 -3.9 0 0.5 0.07 1 0 2.47 0.035 4.5 0.47 /

77226 'IEEEX1' H 0.04 75 0.05 1 1 3.9 -3.9 0 0.5 0.07 1 0 2.47 0.035 4.5 0.47 /
77228 'IEEEX1' C 0.04 75 0.05 1 1 3.9 -3.9 0 0.5 0.07 1 0 2.47 0.035 4.5 0.47 /

77236 'IEEEX1' H 0.04 75 0.05 1 1 3.9 -3.9 0 0.5 0.07 1 0 2.47 0.035 4.5 0.47 /
77238 'IEEEX1' C 0.04 75 0.05 1 1 3.9 -3.9 0 0.5 0.07 1 0 2.47 0.035 4.5 0.47 /
77239 'IEEEX1' O 0.04 75 0.05 1 1 3.9 -3.9 0 0.5 0.07 1 0 2.47 0.035 4.5 0.47 /

77258 'IEEEX1' C 0.04 75 0.05 1 1 3.9 -3.9 0 0.5 0.07 1 0 2.47 0.035 4.5 0.47 /
77259 'IEEEX1' O 0.04 75 0.05 1 1 3.9 -3.9 0 0.5 0.07 1 0 2.47 0.035 4.5 0.47 /
77278 'IEEEX1' C 0.04 75 0.05 1 1 3.9 -3.9 0 0.5 0.07 1 0 2.47 0.035 4.5 0.47 /
77308 'IEEEX1' C 0.04 75 0.05 1 1 3.9 -3.9 0 0.5 0.07 1 0 2.47 0.035 4.5 0.47 /
77316 'IEEEX1' H 0.04 75 0.05 1 1 3.9 -3.9 0 0.5 0.07 1 0 2.47 0.035 4.5 0.47 /
77318 'IEEEX1' C 0.04 75 0.05 1 1 3.9 -3.9 0 0.5 0.07 1 0 2.47 0.035 4.5 0.47 /
77328 'IEEEX1' C 0.04 75 0.05 1 1 3.9 -3.9 0 0.5 0.07 1 0 2.47 0.035 4.5 0.47 /

77358 'IEEEX1' C 0.04 75 0.05 1 1 3.9 -3.9 0 0.5 0.07 1 0 2.47 0.035 4.5 0.47 /
77368 'IEEEX1' C 0.04 75 0.05 1 1 3.9 -3.9 0 0.5 0.07 1 0 2.47 0.035 4.5 0.47 /
77369 'IEEEX1' O 0.04 75 0.05 1 1 3.9 -3.9 0 0.5 0.07 1 0 2.47 0.035 4.5 0.47 /
77408 'IEEEX1' C 0.04 75 0.05 1 1 3.9 -3.9 0 0.5 0.07 1 0 2.47 0.035 4.5 0.47 /
77416 'IEEEX1' H 0.04 75 0.05 1 1 3.9 -3.9 0 0.5 0.07 1 0 2.47 0.035 4.5 0.47 /
77488 'IEEEX1' C 0.04 75 0.05 1 1 3.9 -3.9 0 0.5 0.07 1 0 2.47 0.035 4.5 0.47 /
77489 'IEEEX1' O 0.04 75 0.05 1 1 3.9 -3.9 0 0.5 0.07 1 0 2.47 0.035 4.5 0.47 /

77576 'IEEEX1' H 0.04 75 0.05 1 1 3.9 -3.9 0 0.5 0.07 1 0 2.47 0.035 4.5 0.47 /
77579 'IEEEX1' O 0.04 75 0.05 1 1 3.9 -3.9 0 0.5 0.07 1 0 2.47 0.035 4.5 0.47 /

77616 'IEEEX1' H 0.04 75 0.05 1 1 3.9 -3.9 0 0.5 0.07 1 0 2.47 0.035 4.5 0.47 /
77618 'IEEEX1' C 0.04 75 0.05 1 1 3.9 -3.9 0 0.5 0.07 1 0 2.47 0.035 4.5 0.47 /
77626 'IEEEX1' H 0.04 75 0.05 1 1 3.9 -3.9 0 0.5 0.07 1 0 2.47 0.035 4.5 0.47 /
77658 'IEEEX1' C 0.04 75 0.05 1 1 3.9 -3.9 0 0.5 0.07 1 0 2.47 0.035 4.5 0.47 /

77666 'IEEEX1' H 0.04 75 0.05 1 1 3.9 -3.9 0 0.5 0.07 1 0 2.47 0.035 4.5 0.47 /
77686 'IEEEX1' H 0.04 75 0.05 1 1 3.9 -3.9 0 0.5 0.07 1 0 2.47 0.035 4.5 0.47 /
77708 'IEEEX1' C 0.04 75 0.05 1 1 3.9 -3.9 0 0.5 0.07 1 0 2.47 0.035 4.5 0.47 /
77786 'IEEEX1' H 0.04 75 0.05 1 1 3.9 -3.9 0 0.5 0.07 1 0 2.47 0.035 4.5 0.47 /
77819 'IEEEX1' O 0.04 75 0.05 1 1 3.9 -3.9 0 0.5 0.07 1 0 2.47 0.035 4.5 0.47 /
77826 'IEEEX1' H 0.04 75 0.05 1 1 3.9 -3.9 0 0.5 0.07 1 0 2.47 0.035 4.5 0.47 /

77846 'IEEEX1' H 0.04 75 0.05 1 1 3.9 -3.9 0 0.5 0.07 1 0 2.47 0.035 4.5 0.47 /

77868 'IEEEX1' C 0.04 75 0.05 1 1 3.9 -3.9 0 0.5 0.07 1 0 2.47 0.035 4.5 0.47 /
77936 'IEEEX1' H 0.04 75 0.05 1 1 3.9 -3.9 0 0.5 0.07 1 0 2.47 0.035 4.5 0.47 /

																										
78995	'GENSAL'	5	4.8	0.05	0.05	3.525	1	1.75	0.9	0.38	0.21	0.15	0.11	0.4	/												
78995	'IEEEX1'	5	0.04	75	0.05	1	1	3.9	-3.9	0	0.5	0.07	1	0	2.47	0.035	4.5	0.47	/								
																											
78996	'GENSAL'	6	4.8	0.05	0.05	3.525	1	1.75	0.9	0.38	0.21	0.15	0.11	0.4	/												
78996	'IEEEX1'	6	0.04	75	0.05	1	1	3.9	-3.9	0	0.5	0.07	1	0	2.47	0.035	4.5	0.47	/								
																								
																																															
78011	'GENSAL'	1	5.15	0.05	0.05	3.86	1	1.592	0.97	0.407	0.29	0.17	0.11	0.4	/												
78011	'ESST1A'	1	1	1	0.04	0.3	-0.3	1	5	0.01	0.01	200	0	7	-7	5.2	-5.2	0.38	0	1	0	0	/				
78011	'HYGOV'	1	0.05	0.08	1.22	0.05	0.5	0.167	0.93	0	0.3	1.2	0.5	0.08	/												
78011	'PSS2A'	'1'	1	0	3	0	5	1	5	5	0	5	5	5	0.648	1	0.12	0.1	5.878	0.26	0.07	0.26	0.07	0.1	-0.1	/	
																											
																										
78012	'GENSAL'	2	5.15	0.05	0.05	3.86	1	1.592	0.97	0.407	0.29	0.17	0.11	0.4	/												
78012	'ESST1A'	2	1	1	0.04	0.3	-0.3	1	5	0.01	0.01	200	0	7	-7	5.2	-5.2	0.38	0	1	0	0	/				
78012	'HYGOV'	2	0.05	0.08	1.22	0.05	0.5	0.167	0.93	0	0.3	1.2	0.5	0.08	/												
78012	'PSS2A'	'2'	1	0	3	0	5	1	5	5	0	5	5	5	0.648	1	0.12	0.1	5.878	0.26	0.07	0.26	0.07	0.1	-0.1	/	
																											
																											
78013	'GENSAL'	3	5.15	0.05	0.05	3.86	1	1.592	0.97	0.407	0.29	0.17	0.11	0.4	/												
78013	'ESST1A'	3	1	1	0.04	0.3	-0.3	1	5	0.01	0.01	200	0	7	-7	5.2	-5.2	0.38	0	1	0	0	/				
78013	'HYGOV'	3	0.05	0.08	1.22	0.05	0.5	0.167	0.93	0	0.3	1.2	0.5	0.08	/												
78013	'PSS2A'	'3'	1	0	3	0	5	1	5	5	0	5	5	5	0.648	1	0.12	0.1	5.878	0.26	0.07	0.26	0.07	0.1	-0.1	/	
																											
																											
																											
78021	'GENSAL'	1	7	0.05	0.05	2.6	1	1.25	0.75	0.25	0.16	0.15	0.11	0.4	/												
78021	'ESDC1A'	1	0.04	75	0.89	1	1	2.1	-2.1	0	0.5	0.07	1	0	2.47	0.035	4.5	0.47	/								
78021	'HYGOV'	1	0.05	0.15	1.62	0.05	0.5	0.167	0.91	0	0.4	1.2	1.5	0.08	/												
																											
																											
78022	'GENSAL'	2	7	0.05	0.05	2.6	1	1.25	0.75	0.25	0.16	0.15	0.11	0.4	/												
78022	'ESDC1A'	2	0.04	75	0.89	1	1	2.1	-2.1	0	0.5	0.07	1	0	2.47	0.035	4.5	0.47	/								
78022	'HYGOV'	2	0.05	0.15	1.62	0.05	0.5	0.167	0.91	0	0.4	1.2	1.5	0.08	/												
																											
																											
78023	'GENSAL'	3	7	0.05	0.05	2.6	1	1.25	0.75	0.25	0.16	0.15	0.11	0.4	/												
78023	'ESDC1A'	3	0.04	75	0.89	1	1	2.1	-2.1	0	0.5	0.07	1	0	2.47	0.035	4.5	0.47	/								
78023	'HYGOV'	3	0.05	0.15	1.62	0.05	0.5	0.167	0.91	0	0.4	1.2	1.5	0.08	/												
																											
																											
78024	'GENSAL'	4	7	0.05	0.05	2.43	1	1.25	0.75	0.25	0.16	0.15	0.11	0.4	/												
78024	'ESDC1A'	4	0.04	75	0.89	1	1	2.1	-2.1	0	0.5	0.07	1	0	2.47	0.035	4.5	0.47	/								
78024	'HYGOV'	4	0.05	0.15	1.62	0.05	0.5	0.167	0.91	0	0.4	1.2	1.5	0.08	/												
																											
																											
78031	'GENSAL'	1	4.8	0.05	0.05	3.525	1	1.75	0.9	0.38	0.21	0.15	0.11	0.4	/												
78031	'ESDC1A'	1	0.04	75	0.89	1	1	2.1	-2.1	0	0.5	0.07	1	0	2.47	0.035	4.5	0.47	/								
78031	'HYGOV'	1	0.05	0.13	1.78	0.05	0.5	0.167	0.81	0	0.45	1.5	0.5	0.08	/												
																											
																											
78032	'GENSAL'	2	4.8	0.05	0.05	3.525	1	1.75	0.9	0.38	0.21	0.15	0.11	0.4	/												
78032	'ESDC1A'	2	0.04	75	0.89	1	1	2.1	-2.1	0	0.5	0.07	1	0	2.47	0.035	4.5	0.47	/								
78032	'HYGOV'	2	0.05	0.13	1.78	0.05	0.5	0.167	0.81	0	0.45	1.5	0.5	0.08	/												
																											
																											
																											
78041	'GENSAL'	1	5.15	0.05	0.05	3.63	1	1.58	0.97	0.43	0.31	0.17	0.11	0.4	/												
78041	'ESDC1A'	1	0.04	75	0.89	1	1	2.1	-2.1	0	0.5	0.07	1	0	2.47	0.035	4.5	0.47	/								
78041	'HYGOV'	1	0.05	0.07	0.89	0.05	0.5	0.167	0.8	0	0.22	1.2	0.5	0.08	/												
																											
																											
78042	'GENSAL'	2	5.15	0.05	0.05	3.63	1	1.58	0.97	0.43	0.31	0.17	0.11	0.4	/												
78042	'ESDC1A'	2	0.04	75	0.89	1	1	2.1	-2.1	0	0.5	0.07	1	0	2.47	0.035	4.5	0.47	/								
78042	'HYGOV'	2	0.05	0.07	0.89	0.05	0.5	0.167	0.8	0	0.22	1.2	0.5	0.08	/												
																											
																											
78051	'GENSAL'	1	2.435	0.054	0.029	3.085	1	0.905	0.54	0.36	0.225	0.17	0.11	0.4	/												
78051	'ESDC1A'	1	0.04	75	0.89	1	1	2.1	-2.1	0	0.5	0.07	1	0	2.47	0.035	4.5	0.47	/								
78051	'HYGOV'	1	0.05	0.23	2.79	0.05	0.5	0.167	0.89	0	0.7	1.2	0.5	0.08	/												
																											
																											
78052	'GENSAL'	2	2.435	0.054	0.029	3.085	1	0.905	0.54	0.36	0.225	0.17	0.11	0.4	/												
78052	'ESDC1A'	2	0.04	75	0.89	1	1	2.1	-2.1	0	0.5	0.07	1	0	2.47	0.035	4.5	0.47	/								
78052	'HYGOV'	2	0.05	0.23	2.79	0.05	0.5	0.167	0.89	0	0.7	1.2	0.5	0.08	/												
																											
																											
78061	'GENSAL'	1	4.8	0.05	0.05	2.56	1	0.96	0.57	0.25	0.198	0.17	0.11	0.4	/												
78061	'ESDC1A'	1	0.04	75	0.89	1	1	2.1	-2.1	0	0.5	0.07	1	0	2.47	0.035	4.5	0.47	/								
78061	'HYGOV'	1	0.05	0.27	2.79	0.05	0.5	0.167	0.72	0	0.7	1.2	0.5	0.08	/												
																											
																											
78062	'GENSAL'	2	4.8	0.05	0.05	2.56	1	0.96	0.57	0.25	0.198	0.17	0.11	0.4	/												
78062	'ESDC1A'	2	0.04	75	0.89	1	1	2.1	-2.1	0	0.5	0.07	1	0	2.47	0.035	4.5	0.47	/								
78062	'HYGOV'	2	0.05	0.27	2.79	0.05	0.5	0.167	0.72	0	0.7	1.2	0.5	0.08	/												
																											
																											
																											
78071	'GENSAL'	1	4.22	0.055	0.037	3.835	1	0.794	0.477	0.265	0.162	0.15	0.11	0.4	/												
78071	'ESDC1A'	1	0.04	75	0.89	1	1	2.1	-2.1	0	0.5	0.07	1	0	2.47	0.035	4.5	0.47	/								
78071	'HYGOV'	1	0.05	0.16	2.4	0.05	0.5	0.167	0.84	0	0.6	1.2	0.5	0.08	/												
																											
																											
78072	'GENSAL'	2	4.22	0.055	0.037	3.835	1	0.794	0.477	0.265	0.162	0.15	0.11	0.4	/												
78072	'ESDC1A'	2	0.04	75	0.89	1	1	2.1	-2.1	0	0.5	0.07	1	0	2.47	0.035	4.5	0.47	/								
78072	'HYGOV'	2	0.05	0.16	2.4	0.05	0.5	0.167	0.84	0	0.6	1.2	0.5	0.08	/												
																											
																											
78073	'GENSAL'	3	4.22	0.055	0.037	3.835	1	0.794	0.477	0.265	0.162	0.15	0.11	0.4	/												
78073	'ESDC1A'	3	0.04	75	0.89	1	1	2.1	-2.1	0	0.5	0.07	1	0	2.47	0.035	4.5	0.47	/								
78073	'HYGOV'	3	0.05	0.16	2.4	0.05	0.5	0.167	0.84	0	0.6	1.2	0.5	0.08	/												
																																					
78081	'GENSAL'	1	3.84	0.05	0.05	4.5	1	0.9	0.52	0.3	0.18	0.17	0.11	0.4	/												
78081	'ESDC1A'	1	0.04	75	0.89	1	1	2.1	-2.1	0	0.5	0.07	1	0	2.47	0.035	4.5	0.47	/								
78081	'HYGOV'	1	0.05	0.13	2.38	0.05	0.5	0.167	0.98	0	0.6	1.2	0.5	0.08	/												
																											
																										
78082	'GENSAL'	2	3.84	0.05	0.05	4.5	1	0.9	0.52	0.3	0.18	0.17	0.11	0.4	/												
78082	'ESDC1A'	2	0.04	75	0.89	1	1	2.1	-2.1	0	0.5	0.07	1	0	2.47	0.035	4.5	0.47	/								
78082	'HYGOV'	2	0.05	0.13	2.38	0.05	0.5	0.167	0.98	0	0.6	1.2	0.5	0.08	/												
																											
																											
78083	'GENSAL'	3	3.84	0.05	0.05	4.5	1	0.9	0.52	0.3	0.18	0.17	0.11	0.4	/												
78083	'ESDC1A'	3	0.04	75	0.89	1	1	2.1	-2.1	0	0.5	0.07	1	0	2.47	0.035	4.5	0.47	/								
78083	'HYGOV'	3	0.05	0.13	2.38	0.05	0.5	0.167	0.98	0	0.6	1.2	0.5	0.08	/												
																											
																											
																											
78084	'GENSAL'	4	5	0.02	0.02	2.32	1	1.2	0.8	0.35	0.15	0.15	0.11	0.4	/												
78084	'ESDC2A'	4	0.02	14	0	1	0.75	3.37	-2.96	1	0.001	0	1	0	0	0	0	0	/								
78084	'HYGOV'	4	0.05	0.13	2.38	0.05	0.5	0.167	0.91	0	0.6	1.2	0.5	0.08	/												
78084	'IEEEST'	'4'	3	0	0	0	0	0	0	0	0	0	0	0	0.94	0.94	-2.979	0.05	-0.05	0	0	/					
																											
																											
78091	'GENSAL'	1	3.89	0.05	0.035	4.14	1	0.87	0.5	0.3	0.2	0.17	0.11	0.4	/												
78091	'ESDC1A'	1	0.04	75	0.89	1	1	2.1	-2.1	0	0.5	0.07	1	0	2.47	0.035	4.5	0.47	/								
78091	'HYGOV'	1	0.05	0.14	2.4	0.05	0.5	0.167	0.95	0	0.6	1.2	0.5	0.08	/												
																											
																											
78092	'GENSAL'	2	3.89	0.05	0.035	4.14	1	0.87	0.5	0.3	0.2	0.17	0.11	0.4	/												
78092	'ESDC1A'	2	0.04	75	0.89	1	1	2.1	-2.1	0	0.5	0.07	1	0	2.47	0.035	4.5	0.47	/								
78092	'HYGOV'	2	0.05	0.14	2.4	0.05	0.5	0.167	0.95	0	0.6	1.2	0.5	0.08	/												
																											
																											
78093	'GENSAL'	3	3.89	0.05	0.035	4.14	1	0.87	0.5	0.3	0.2	0.17	0.11	0.4	/												
78093	'ESDC1A'	3	0.04	75	0.89	1	1	2.1	-2.1	0	0.5	0.07	1	0	2.47	0.035	4.5	0.47	/								
78093	'HYGOV'	3	0.05	0.14	2.4	0.05	0.5	0.167	0.95	0	0.6	1.2	0.5	0.08	/												
																											
															
78101	'GENSAL'	1	6.3	0.03	0.04	2.68	1	1.32	0.67	0.17	0.12	0.11	0.11	0.4	/												
78101	'ESAC1A'	1	0.04	1	1	75	0.05	5	-5	0.5	0.07	1	0.38	0.2	1	2.47	0.035	4.5	0.47	4	-4	/					
78101	'HYGOV'	1	0.05	0.27	2.88	0.05	0.5	0.167	0.7	0	0.72	1.2	0.5	0.08	/												
																																																	
78111	'GENSAL'	1	7.3	0.1	0.1	2.7	1	1.7	1.001	0.37	0.264	0.15	0.11	0.4	/												
78111	'ESDC1A'	1	0.04	75	0.89	1	1	2.1	-2.1	0	0.5	0.07	1	0	2.47	0.035	4.5	0.47	/								
78111	'HYGOV'	1	0.05	0.09	0.97	0.05	0.5	0.167	0.76	0	0.24	1.2	1.5	0.08	/												
																											
																											
78112	'GENSAL'	2	7.3	0.1	0.1	2.7	1	1.7	1.001	0.37	0.264	0.15	0.11	0.4	/												
78112	'ESDC1A'	2	0.04	75	0.89	1	1	2.1	-2.1	0	0.5	0.07	1	0	2.47	0.035	4.5	0.47	/								
78112	'HYGOV'	2	0.05	0.09	0.97	0.05	0.5	0.167	0.76	0	0.24	1.2	1.5	0.08	/												
																											
																											
78121	'GENSAL'	1	4.22	0.05	0.05	4.04	1	0.938	0.41	0.26	0.182	0.17	0.11	0.4	/												
78121	'ESDC2A'	1	0.04	50	0.005	1	1	3.5	-3.5	1	0.025	0.04	1	0	2.5	0	4.5	0	/								
78121	'HYGOV'	1	0.05	0.16	2.78	0.05	0.5	0.167	0.91	0	0.7	1.2	0	0.08	/												
																											
																											
78122	'GENSAL'	2	4.22	0.05	0.05	4.04	1	0.938	0.41	0.26	0.182	0.17	0.11	0.4	/												
78122	'ESDC2A'	2	0.04	50	0.005	1	1	3.5	-3.5	1	0.025	0.04	1	0	2.5	0	4.5	0	/								
78122	'HYGOV'	2	0.05	0.16	2.78	0.05	0.5	0.167	0.91	0	0.7	1.2	0	0.08	/												
																											
																											
78123	'GENSAL'	3	4.22	0.05	0.05	4.04	1	0.938	0.41	0.26	0.182	0.17	0.11	0.4	/												
78123	'ESDC2A'	3	0.04	50	0.005	1	1	3.5	-3.5	1	0.025	0.04	1	0	2.5	0	4.5	0	/								
78123	'HYGOV'	3	0.05	0.16	2.78	0.05	0.5	0.167	0.91	0	0.7	1.2	0	0.08	/												
																											
																											
78131	'GENSAL'	1	4.14	0.05	0.05	2.9	1	1.2	0.7	0.334	0.243	0.15	0.11	0.4	/												
78131	'ESDC1A'	1	0.04	75	0.89	1	1	2.1	-2.1	0	0.5	0.07	1	0	2.47	0.035	4.5	0.47	/								
78131	'HYGOV'	1	0.05	0.2	2.7	0.05	0.5	0.167	0.89	0	0.7	1.2	0.5	0.08	/												
																											
																											
78132	'GENSAL'	2	5	0.05	0.05	2.75	1	1.2	0.7	0.3	0.2	0.15	0.11	0.4	/												
78132	'ESDC1A'	2	0.04	75	0.89	1	1	2.1	-2.1	0	0.5	0.07	1	0	2.47	0.035	4.5	0.47	/								
78132	'HYGOV'	2	0.05	0.2	2.7	0.05	0.5	0.167	0.89	0	0.7	1.2	0.5	0.08	/												
																											
																											
78141	'GENSAL'	1	4.4	0.06	0.08	4.07	1	0.9	0.6	0.27	0.19	0.15	0.11	0.4	/												
78141	'ESDC2A'	1	0.04	50	0.005	1	1	3.5	-3.5	1	0.025	0.04	1	0	2.5	0	4.5	0	/								
78141	'HYGOV'	1	0.05	0.12	1.92	0.05	0.5	0.167	0.91	0	0.48	1.2	0	0.08	/												
																											
																											
78142	'GENSAL'	2	4.4	0.06	0.08	4.07	1	0.9	0.6	0.27	0.19	0.15	0.11	0.4	/												
78142	'ESDC2A'	2	0.04	50	0.005	1	1	3.5	-3.5	1	0.025	0.04	1	0	2.5	0	4.5	0	/								
78142	'HYGOV'	2	0.05	0.12	1.92	0.05	0.5	0.167	0.91	0	0.48	1.2	0	0.08	/												
																											
																											
78143	'GENSAL'	3	4.4	0.06	0.08	4.07	1	0.9	0.6	0.27	0.19	0.15	0.11	0.4	/												
78143	'ESDC2A'	3	0.04	50	0.005	1	1	3.5	-3.5	1	0.025	0.04	1	0	2.5	0	4.5	0	/								
78143	'HYGOV'	3	0.05	0.12	1.92	0.05	0.5	0.167	0.91	0	0.48	1.2	0	0.08	/												
																											
																											
78151	'GENSAL'	1	7.9	0.05	0.05	2.345	1	1.4	0.83	0.22	0.18	0.17	0.11	0.4	/												
78151	'ESDC2A'	1	0.04	50	0.005	1	1	3.5	-3.5	1	0.025	0.04	1	0	2.5	0	4.5	0	/								
78151	'HYGOV'	1	0.05	0.8	7.5	0.05	0.5	0.167	0.91	0	1.88	1.2	0	0.08	/												
																											
																											
78152	'GENSAL'	2	7.9	0.05	0.05	2.345	1	1.4	0.83	0.22	0.18	0.17	0.11	0.4	/												
78152	'ESDC2A'	2	0.04	50	0.005	1	1	3.5	-3.5	1	0.025	0.04	1	0	2.5	0	4.5	0	/								
78152	'HYGOV'	2	0.05	0.8	7.5	0.05	0.5	0.167	0.91	0	1.88	1.2	0	0.08	/												
																											
																											
78153	'GENSAL'	3	7.9	0.05	0.05	2.345	1	1.4	0.83	0.22	0.18	0.17	0.11	0.4	/												
78153	'ESDC2A'	3	0.04	50	0.005	1	1	3.5	-3.5	1	0.025	0.04	1	0	2.5	0	4.5	0	/								
78153	'HYGOV'	3	0.05	0.8	7.5	0.05	0.5	0.167	0.91	0	1.88	1.2	0	0.08	/												
																											
																											
78161	'GENSAL'	1	4.4	0.05	0.05	4.22	1	0.9	0.55	0.3	0.21	0.15	0.11	0.4	/												
78161	'ESDC2A'	1	0.04	50	0.005	1	1	3.5	-3.5	1	0.025	0.04	1	0	2.5	0	4.5	0	/								
78161	'HYGOV'	1	0.05	0.08	1.32	0.05	0.5	0.167	0.89	0	0.33	1.2	0	0.08	/												
																											
																											
78162	'GENSAL'	2	4.4	0.05	0.05	4.22	1	0.9	0.55	0.3	0.21	0.15	0.11	0.4	/												
78162	'ESDC2A'	2	0.04	50	0.005	1	1	3.5	-3.5	1	0.025	0.04	1	0	2.5	0	4.5	0	/								
78162	'HYGOV'	2	0.05	0.08	1.32	0.05	0.5	0.167	0.89	0	0.33	1.2	0	0.08	/												
																											
																											
78163	'GENSAL'	3	4.4	0.05	0.05	4.22	1	0.9	0.55	0.3	0.21	0.15	0.11	0.4	/												
78163	'ESDC2A'	3	0.04	50	0.005	1	1	3.5	-3.5	1	0.025	0.04	1	0	2.5	0	4.5	0	/								
78163	'HYGOV'	3	0.05	0.08	1.32	0.05	0.5	0.167	0.89	0	0.33	1.2	0	0.08	/												
																											
																											
78171	'GENSAL'	1	5.2	0.041	0.076	3	1	1.04	0.64	0.3	0.24	0.21	0.11	0.4	/												
78171	'ESDC2A'	1	0.04	50	0.005	1	1	3.5	-3.5	1	0.025	0.04	1	0	2.5	0	4.5	0	/								
78171	'HYGOV'	1	0.05	0.14	1.7	0.05	0.5	0.167	1.13	0	0.42	1.2	0.5	0.08	/												
																											
																											
78172	'GENSAL'	2	5.2	0.041	0.076	3	1	1.04	0.64	0.3	0.24	0.21	0.11	0.4	/												
78172	'ESDC2A'	2	0.04	50	0.005	1	1	3.5	-3.5	1	0.025	0.04	1	0	2.5	0	4.5	0	/								
78172	'HYGOV'	2	0.05	0.14	1.7	0.05	0.5	0.167	1.13	0	0.42	1.2	0.5	0.08	/												
																											
																											
78173	'GENSAL'	3	5.2	0.041	0.076	3	1	1.04	0.64	0.3	0.24	0.21	0.11	0.4	/												
78173	'ESDC2A'	3	0.04	50	0.005	1	1	3.5	-3.5	1	0.025	0.04	1	0	2.5	0	4.5	0	/								
78173	'HYGOV'	3	0.05	0.14	1.7	0.05	0.5	0.167	1.13	0	0.42	1.2	0.5	0.08	/												
																											
																										
78181	'GENSAL'	1	6.5	0.04	0.06	1.055	1	1.16	0.69	0.35	0.23	0.15	0.11	0.4	/												
78181	'ESDC2A'	1	0.04	50	0.005	1	1	3.5	-3.5	1	0.025	0.04	1	0	2.5	0	4.5	0	/								
78181	'HYGOV'	1	0.05	0.13	0.56	0.05	0.5	0.167	1.01	0	0.14	1.2	0.5	0.08	/												
																											
																											
78182	'GENSAL'	2	6.5	0.04	0.06	1.055	1	1.16	0.69	0.35	0.23	0.15	0.11	0.4	/												
78182	'ESDC2A'	2	0.04	50	0.005	1	1	3.5	-3.5	1	0.025	0.04	1	0	2.5	0	4.5	0	/								
78182	'HYGOV'	2	0.05	0.13	0.56	0.05	0.5	0.167	1.01	0	0.14	1.2	0.5	0.08	/												
																											
																											
78191	'GENSAL'	1	5	0.07	0.1	3.28	1	0.78	0.42	0.27	0.2	0.13	0.11	0.4	/												
78191	'ESDC2A'	1	0.04	50	0.005	1	1	3.5	-3.5	1	0.025	0.04	1	0	2.5	0	4.5	0	/								
78191	'HYGOV'	1	0.05	0.15	1.95	0.05	0.5	0.167	1.01	0	0.49	1.2	0	0.08	/												
																											
																											
78192	'GENSAL'	2	5	0.07	0.1	3.28	1	0.78	0.42	0.27	0.2	0.13	0.11	0.4	/												
78192	'ESDC2A'	2	0.04	50	0.005	1	1	3.5	-3.5	1	0.025	0.04	1	0	2.5	0	4.5	0	/								
78192	'HYGOV'	2	0.05	0.15	1.95	0.05	0.5	0.167	1.01	0	0.49	1.2	0	0.08	/												
																											
																											
78193	'GENSAL'	3	5	0.07	0.1	3.28	1	0.78	0.42	0.27	0.2	0.13	0.11	0.4	/												
78193	'ESDC2A'	3	0.04	50	0.005	1	1	3.5	-3.5	1	0.025	0.04	1	0	2.5	0	4.5	0	/								
78193	'HYGOV'	3	0.05	0.15	1.95	0.05	0.5	0.167	1.01	0	0.49	1.2	0	0.08	/												
																											
																											
78201	'GENSAL'	1	2.6	0.019	0.02	2.37	1	1.12	0.71	0.39	0.29	0.17	0.11	0.4	/												
78201	'ESAC1A'	1	0.04	1	1	75	0.05	5	-5	0.5	0.07	1	0.38	0.2	1	2.47	0.035	4.5	0.47	4	-4	/					
78201	'HYGOV'	1	0.05	0.2	1.6	0.05	0.5	0.167	0.98	0	0.4	1.2	0.5	0.08	/												
																											
																											
78202	'GENSAL'	2	2.6	0.019	0.02	2.37	1	1.12	0.71	0.39	0.29	0.17	0.11	0.4	/												
78202	'ESAC1A'	2	0.04	1	1	75	0.05	5	-5	0.5	0.07	1	0.38	0.2	1	2.47	0.035	4.5	0.47	4	-4	/					
78202	'HYGOV'	2	0.05	0.2	1.6	0.05	0.5	0.167	0.98	0	0.4	1.2	0.5	0.08	/												
																											
																											
78203	'GENSAL'	3	2.6	0.019	0.02	2.37	1	1.12	0.71	0.39	0.29	0.17	0.11	0.4	/												
78203	'ESAC1A'	3	0.04	1	1	75	0.05	5	-5	0.5	0.07	1	0.38	0.2	1	2.47	0.035	4.5	0.47	4	-4	/					
78203	'HYGOV'	3	0.05	0.2	1.6	0.05	0.5	0.167	0.98	0	0.4	1.2	0.5	0.08	/												
																											
																											
78211	'GENSAL'	1	5	0.02	0.02	2.84	1	1.06	0.7	0.27	0.21	0.15	0.11	0.4	/												
78211	'ESDC2A'	1	0.04	50	0.005	1	1	3.5	-3.5	1	0.025	0.04	1	0	2.5	0	4.5	0	/								
78211	'HYGOV'	1	0.05	0.2	2.8	0.05	0.5	0.167	0.83	0	1.5	1.2	0.5	0.08	/												
																											
																											
78212	'GENSAL'	2	5	0.02	0.02	2.84	1	1.06	0.7	0.27	0.21	0.15	0.11	0.4	/												
78212	'ESDC2A'	2	0.04	50	0.005	1	1	3.5	-3.5	1	0.025	0.04	1	0	2.5	0	4.5	0	/								
78212	'HYGOV'	2	0.05	0.2	2.8	0.05	0.5	0.167	0.83	0	1.5	1.2	0.5	0.08	/												
																											
																										
78221	'GENSAL'	1	5	0.02	0.02	3.425	1	1.2	0.7	0.35	0.25	0.15	0.11	0.4	/												
78221	'ESDC2A'	1	0.02	43.5	0	1	0.75	3.37	-2.96	1	0.001	0	1	0	0	0	0	0	/								
78221	'HYGOV'	1	0.05	0.4	5	0.05	0.5	0.167	0.9	0	1.5	1.2	0.5	0.08	/												
																											
																											
																										
78222	'GENSAL'	2	5	0.02	0.02	3.425	1	1.2	0.7	0.35	0.25	0.15	0.11	0.4	/												
78222	'ESDC2A'	2	0.02	43.5	0	1	0.75	3.37	-2.96	1	0.001	0	1	0	0	0	0	0	/								
78222	'HYGOV'	2	0.05	0.4	5	0.05	0.5	0.167	0.9	0	1.5	1.2	0.5	0.08	/												
/78222	'IEEEST'	'2'	3	0	0	0	0	0	0	0	0	0	0	0	/0.94	0.94	-2.979
/	0.05	-0.05	0	0	/					
																											
																											
78231	'GENSAL'	1	3.75	0.043	0.12	2.31	1	1.3	0.8	0.33	0.25	0.15	0.11	0.4	/												
78231	'ESDC2A'	1	0.04	50	0.005	1	1	3.5	-3.5	1	0.025	0.04	1	0	2.5	0	4.5	0	/								
78231	'HYGOV'	1	0.05	0.4	5	0.05	0.5	0.167	0.93	0	1.5	1.2	0.5	0.08	/												
																											
																											
78240	'GENSAL'	1	5	0.05	0.05	1.71	1	1.3	0.76	0.23	0.15	0.15	0.11	0.4	/												
78240	'GENSAL'	2	5	0.05	0.05	1.71	1	1.3	0.76	0.23	0.15	0.15	0.11	0.4	/												
78240	'ESDC2A'	1	0.04	50	0.005	1	1	3.5	-3.5	1	0.025	0.04	1	0	2.5	0	4.5	0	/								
78240	'ESDC2A'	2	0.04	50	0.005	1	1	3.5	-3.5	1	0.025	0.04	1	0	2.5	0	4.5	0	/								
78240	'HYGOV'	1	0.05	0.4	5	0.05	0.5	0.167	0.87	0	1.5	1.2	0.5	0.08	/												
78240	'HYGOV'	2	0.05	0.4	5	0.05	0.5	0.167	0.87	0	1.5	1.2	0.5	0.08	/												
																											
																										
78243	'GENSAL'	3	5	0.05	0.05	1.97	1	1.3	0.76	0.23	0.15	0.1	0.11	0.4	/												
78243	'ESDC2A'	3	0.04	50	0.005	1	1	3.5	-3.5	1	0.025	0.04	1	0	2.5	0	4.5	0	/								
78243	'HYGOV'	3	0.05	0.4	5	0.05	0.5	0.167	0.92	0	1.5	1.2	0.5	0.08	/												
																																																
78251	'GENSAL'	1	5	0.05	0.05	0.8	1	1.016	0.496	0.238	0.149	0.13	0.11	0.4	/												