0,   100.00, 33, 0, 1, 50.00     / PSS(R)E-33.5    THU, OCT 22 2015  14:37


 11015,'CARTELLE    ', 400.0000,1,   1,  99, 111,1.06254, -27.4900,1.10000,0.90000,1.10000,0.90000
 11016,'CARTELLE    ', 400.0000,1,   1,  99, 111,1.06253, -27.4831,1.10000,0.90000,1.10000,0.90000
 14030,'CEDILLO     ', 400.0000,1,   1,  99, 116,1.04053, -39.8077,1.10000,0.90000,1.10000,0.90000
 15013,'BROVALES    ', 400.0000,1,   1,  99, 111,1.03828, -40.5446,1.10000,0.90000,1.10000,0.90000
 22010,'ALDEADAV    ', 220.0000,1,   1,  99, 134,1.08231, -37.5104,1.10000,0.90000,1.10000,0.90000
 22011,'ALDEADAV    ', 220.0000,1,   1,  99, 134,1.06655, -35.8956,1.10000,0.90000,1.10000,0.90000
 22195,'SAUCELLE    ', 220.0000,1,   1,  99, 112,1.07493, -37.4767,1.10000,0.90000,1.10000,0.90000
 70101,'ZEZERE      ', 150.0000,1,   6,   7,   2,1.02610, -41.5895,1.10000,0.90000,1.10000,0.90000
 70103,'ERMESIN     ', 150.0000,1,   6,   4,   2,1.03834, -38.8665,1.10000,0.90000,1.10000,0.90000
 70104,'SETUBAL     ', 150.0000,1,   6,  11,   2,1.02283, -39.8773,1.10000,0.90000,1.10000,0.90000
 70105,'F.ALENT     ', 150.0000,1,   6,  12,   2,1.02037, -38.2494,1.10000,0.90000,1.10000,0.90000
 70108,'VERMOIM     ', 150.0000,1,   6,   4,   2,1.04016, -38.8191,1.10000,0.90000,1.10000,0.90000
 70109,'P.ALTO      ', 150.0000,1,   6,  11,   2,1.01922, -40.3883,1.10000,0.90000,1.10000,0.90000
 70113,'TUNES       ', 150.0000,1,   6,  13,   2,1.00657, -42.8331,1.10000,0.90000,1.10000,0.90000
 70115,'F.FERRO     ', 150.0000,1,   6,  11,   2,1.02033, -40.8576,1.10000,0.90000,1.10000,0.90000
 70117,'PALMELA     ', 150.0000,1,   6,  11,   2,1.02282, -39.7043,1.10000,0.90000,1.10000,0.90000
 70119,'SINES       ', 150.0000,1,   6,  12,   2,1.03459, -35.3184,1.10000,0.90000,1.10000,0.90000
 70120,'VALDIGE     ', 150.0000,1,   6,   2,   2,1.03700, -35.7782,1.10000,0.90000,1.10000,0.90000
 70122,'RIBADAV     ', 150.0000,1,   6,   1,   2,1.03841, -37.7890,1.10000,0.90000,1.10000,0.90000
 70127,'GUIMARA     ', 150.0000,1,   6,   1,   2,1.03670, -37.9219,1.10000,0.90000,1.10000,0.90000
 70131,'V.FRIA      ', 150.0000,1,   6,   1,   2,1.03483, -38.8438,1.10000,0.90000,1.10000,0.90000
 70139,'EVORA       ', 150.0000,1,   6,  12,   2,1.02822, -40.9225,1.10000,0.90000,1.10000,0.90000
 70140,'TRAFARIA    ', 150.0000,1,   6,  11,   2,1.01853, -41.1066,1.10000,0.90000,1.10000,0.90000
 70141,'FAFE        ', 150.0000,1,   6,   1,   2,1.04060, -37.8125,1.10000,0.90000,1.10000,0.90000
 70150,'OURIQUE     ', 150.0000,1,   6,  12,   2,1.01585, -39.6893,1.10000,0.90000,1.10000,0.90000
 70155,'CHAVES      ', 150.0000,1,   6,   1,   2,1.02380, -36.9435,1.10000,0.90000,1.10000,0.90000
 70156,'ESTOI       ', 150.0000,1,   6,  13,   2,0.99400, -43.6947,1.10000,0.90000,1.10000,0.90000
 70157,'FALAGUE     ', 150.0000,1,   6,  14,   2,1.02133, -46.2547,1.10000,0.90000,1.10000,0.90000
 70161,'OLEIROS     ', 150.0000,1,   6,   1,   2,1.03534, -38.4495,1.10000,0.90000,1.10000,0.90000
 70163,'RUIVAES     ', 150.0000,1,   6,   1,   2,1.03476, -38.1139,1.10000,0.90000,1.10000,0.90000
 70171,'ERMIDAS     ', 150.0000,1,   6,  12,   2,1.02675, -36.9650,1.10000,0.90000,1.10000,0.90000
 70172,'M.PEDRA     ', 150.0000,1,   6,  12,   2,1.02845, -37.8164,1.10000,0.90000,1.10000,0.90000
 70173,'SABOIA      ', 150.0000,1,   6,  12,   2,1.01737, -39.7349,1.10000,0.90000,1.10000,0.90000
 70177,'PORTIMAO    ', 150.0000,1,   6,  13,   2,1.00828, -42.2321,1.10000,0.90000,1.10000,0.90000
 70180,'CANICAD     ', 150.0000,1,   6,   1,   2,1.04000, -37.0400,1.10000,0.90000,1.10000,0.90000
 70181,'C.BRANCO    ', 150.0000,1,   6,   7,   2,1.01710, -45.3289,1.10000,0.90000,1.10000,0.90000
 70182,'PEDRALVA    ', 150.0000,1,   6,   1,   2,1.03785, -37.6239,1.10000,0.90000,1.10000,0.90000
 70183,'FRADES      ', 150.0000,1,   6,   1,   2,1.04368, -36.4351,1.10000,0.90000,1.10000,0.90000
 70192,'ESTREMOZ    ', 150.0000,1,   6,  12,   2,1.01964, -47.9536,1.10000,0.90000,1.10000,0.90000
 70201,'ZEZERE      ', 220.0000,1,   6,   7,   2,1.04829, -41.9950,1.10000,0.90000,1.10000,0.90000
 70202,'SACAVEM     ', 220.0000,1,   6,  10,   2,1.03898, -41.7047,1.10000,0.90000,1.10000,0.90000
 70203,'ERMESIND    ', 220.0000,4,   6,   4,   2,1.00000,   0.0000,1.10000,0.90000,1.10000,0.90000
 70206,'PEREIRO     ', 220.0000,1,   6,   6,   2,1.04395, -41.9232,1.10000,0.90000,1.10000,0.90000
 70207,'POCINHO     ', 220.0000,1,   6,   3,   2,1.06096, -38.3759,1.10000,0.90000,1.10000,0.90000
 70208,'VERMOIM     ', 220.0000,1,   6,   4,   2,1.03303, -39.2300,1.10000,0.90000,1.10000,0.90000
 70210,'V.CHA       ', 220.0000,1,   6,   5,   2,1.04578, -42.1420,1.10000,0.90000,1.10000,0.90000
 70211,'A.MIRA      ', 220.0000,1,   6,  10,   2,1.03679, -41.8064,1.10000,0.90000,1.10000,0.90000
 70212,'ESTARRE     ', 220.0000,1,   6,   4,   2,1.03333, -40.9083,1.10000,0.90000,1.10000,0.90000
 70214,'BATALHA     ', 220.0000,1,   6,   8,   2,1.04309, -41.1398,1.10000,0.90000,1.10000,0.90000
 70216,'R.MAIOR     ', 220.0000,1,   6,   9,   2,1.04011, -40.6413,1.10000,0.90000,1.10000,0.90000
 70218,'CARREGA     ', 220.0000,1,   6,  10,   2,1.04000, -40.9989,1.10000,0.90000,1.10000,0.90000
 70220,'VALDIGE     ', 220.0000,1,   6,   2,   2,1.04438, -38.3591,1.10000,0.90000,1.10000,0.90000
 70223,'MOURISC     ', 220.0000,1,   6,   6,   2,1.03861, -41.3235,1.10000,0.90000,1.10000,0.90000
 70224,'CANELAS     ', 220.0000,1,   6,   4,   2,1.03958, -38.5714,1.10000,0.90000,1.10000,0.90000
 70225,'FANHOES     ', 220.0000,1,   6,  10,   2,1.03994, -41.5538,1.10000,0.90000,1.10000,0.90000
 70226,'ARMAMAR     ', 220.0000,1,   6,   2,   2,1.04501, -38.5491,1.10000,0.90000,1.10000,0.90000
 70228,'MOGOFOR     ', 220.0000,1,   6,   6,   2,1.04375, -40.6028,1.10000,0.90000,1.10000,0.90000
 70230,'POMBAL      ', 220.0000,1,   6,   8,   2,1.04482, -41.0990,1.10000,0.90000,1.10000,0.90000
 70232,'CUSTOIA     ', 220.0000,1,   6,   4,   2,1.03271, -39.4106,1.10000,0.90000,1.10000,0.90000
 70233,'PICOTE      ', 220.0000,1,   6,   3,   2,1.05485, -35.7476,1.10000,0.90000,1.10000,0.90000
 70234,'CARRICH     ', 220.0000,1,   6,  10,   2,1.03744, -41.9988,1.10000,0.90000,1.10000,0.90000
 70235,'TRAJOUC     ', 220.0000,1,   6,  10,   2,1.03585, -42.4271,1.10000,0.90000,1.10000,0.90000
 70237,'RECAREI     ', 220.0000,1,   6,   4,   2,1.03967, -38.3310,1.10000,0.90000,1.10000,0.90000
 70238,'S.RIOS      ', 220.0000,1,   6,  10,   2,1.03664, -42.0775,1.10000,0.90000,1.10000,0.90000
 70242,'A.S.JOAO    ', 220.0000,4,   6,  10,   2,1.00000,   0.0000,1.10000,0.90000,1.10000,0.90000
 70246,'TORRAO      ', 220.0000,1,   6,   4,   2,1.03816, -39.2273,1.10000,0.90000,1.10000,0.90000
 70254,'REGUA       ', 220.0000,1,   6,   2,   2,1.04500, -38.3108,1.10000,0.90000,1.10000,0.90000
 70262,'FERRO       ', 220.0000,1,   6,   5,   2,1.03790, -42.9273,1.10000,0.90000,1.10000,0.90000
 70264,'MOGADOU     ', 220.0000,1,   6,   3,   2,1.05246, -36.3110,1.10000,0.90000,1.10000,0.90000
 70265,'SANTARE     ', 220.0000,1,   6,   9,   2,1.04229, -41.7065,1.10000,0.90000,1.10000,0.90000
 70266,'CHAFARI     ', 220.0000,1,   6,   5,   2,1.04889, -41.4970,1.10000,0.90000,1.10000,0.90000
 70268,'CARRAPA     ', 220.0000,1,   6,   4,   2,1.04000, -39.4496,1.10000,0.90000,1.10000,0.90000
 70269,'URRO        ', 220.0000,1,   6,   2,   2,1.03980, -38.3480,1.10000,0.90000,1.10000,0.90000
 70270,'PRELADA     ', 220.0000,4,   6,   4,   2,1.00000,   0.0000,1.10000,0.90000,1.10000,0.90000
 70276,'PARAIMO     ', 220.0000,1,   6,   6,   2,1.04342, -40.4290,1.10000,0.90000,1.10000,0.90000
 70278,'BODIOSA     ', 220.0000,1,   6,   5,   2,1.04362, -40.0897,1.10000,0.90000,1.10000,0.90000
 70279,'PENELA      ', 220.0000,1,   6,   6,   2,1.04542, -42.0011,1.10000,0.90000,1.10000,0.90000
 70281,'C.BRANCO    ', 220.0000,1,   6,   7,   2,1.02416, -43.7127,1.10000,0.90000,1.10000,0.90000
 70285,'M.CAVALE    ', 220.0000,1,   6,   3,   2,1.06239, -35.7581,1.10000,0.90000,1.10000,0.90000
 70286,'CARVOEIR    ', 220.0000,1,   6,  10,   2,1.03749, -41.7229,1.10000,0.90000,1.10000,0.90000
 70287,'V.P.AGUI    ', 220.0000,1,   6,   2,   2,1.04419, -38.3000,1.10000,0.90000,1.10000,0.90000
 70288,'ZAMBUJAL    ', 220.0000,4,   6,  10,   2,1.00000,   0.0000,1.10000,0.90000,1.10000,0.90000
 70289,'LAGOACA     ', 220.0000,1,   6,   3,   2,1.05898, -35.6693,1.10000,0.90000,1.10000,0.90000
 70291,'TÁBUA       ', 220.0000,1,   6,   6,   2,1.04184, -42.0307,1.10000,0.90000,1.10000,0.90000
 70293,'VALPACOS    ', 220.0000,4,   6,   1,   2,1.00000,   0.0000,1.10000,0.90000,1.10000,0.90000
 70405,'F.ALENT     ', 400.0000,1,   6,  12,   2,1.04459, -37.3186,1.10000,0.90000,1.10000,0.90000
 70408,'VERMOIM     ', 400.0000,4,   6,   4,   2,1.00000,   0.0000,1.10000,0.90000,1.10000,0.90000
 70411,'A.MIRA      ', 400.0000,1,   6,  10,   2,1.04310, -39.3441,1.10000,0.90000,1.10000,0.90000
 70414,'BATALHA     ', 400.0000,1,   6,   8,   2,1.04441, -38.7123,1.10000,0.90000,1.10000,0.90000
 70415,'F.FERRO     ', 400.0000,4,   6,  11,   2,1.00000,   0.0000,1.10000,0.90000,1.10000,0.90000
 70416,'R.MAIOR     ', 400.0000,1,   6,   9,   2,1.04780, -38.6711,1.10000,0.90000,1.10000,0.90000
 70417,'PALMELA     ', 400.0000,1,   6,  11,   2,1.04809, -38.0621,1.10000,0.90000,1.10000,0.90000
 70419,'SINES       ', 400.0000,1,   6,  12,   2,1.04555, -35.1184,1.10000,0.90000,1.10000,0.90000
 70422,'RIBADAV     ', 400.0000,1,   6,   1,   2,1.04511, -33.7683,1.10000,0.90000,1.10000,0.90000
 70425,'FANHOES     ', 400.0000,1,   6,  10,   2,1.04137, -39.1774,1.10000,0.90000,1.10000,0.90000
 70429,'V.MINHO     ', 400.0000,4,   6,   1,   2,1.00000,   0.0000,1.10000,0.90000,1.10000,0.90000
 70436,'FEIRA       ', 400.0000,4,   6,   4,   2,1.00000,   0.0000,1.10000,0.90000,1.10000,0.90000
 70437,'RECAREI     ', 400.0000,1,   6,   4,   2,1.04186, -35.1154,1.10000,0.90000,1.10000,0.90000
 70448,'LAVOS       ', 400.0000,1,   6,   6,   2,1.04149, -35.4853,1.10000,0.90000,1.10000,0.90000
 70451,'A.LINDO     ', 400.0000,1,   6,   1,   2,1.05261, -29.7431,1.10000,0.90000,1.10000,0.90000
 70457,'FALAGUE     ', 400.0000,1,   6,  14,   2,1.04108, -39.2291,1.10000,0.90000,1.10000,0.90000
 70460,'PEGO        ', 400.0000,1,   6,  14,   2,1.04205, -38.3492,1.10000,0.90000,1.10000,0.90000
 70474,'RIBATEJO    ', 400.0000,1,   6,  10,   2,1.04002, -38.1798,1.10000,0.90000,1.10000,0.90000
 70476,'PARAIMO     ', 400.0000,1,   6,   6,   2,1.04426, -37.8590,1.10000,0.90000,1.10000,0.90000
 70482,'PEDRALVA    ', 400.0000,1,   6,   1,   2,1.04843, -32.2631,1.10000,0.90000,1.10000,0.90000
 70484,'ALQUEVA     ', 400.0000,1,   6,  12,   2,1.03972, -39.1303,1.10000,0.90000,1.10000,0.90000
 70563,'RUIVAES     ', 130.0000,1,   6,   1,   2,1.00046, -39.9171,1.10000,0.90000,1.10000,0.90000
 70582,'PEDRALVA    ', 130.0000,1,   6,   1,   2,1.00813, -38.4893,1.10000,0.90000,1.10000,0.90000
 70601,'ZEZERE      ',  63.0000,1,   6,   7,   3,0.99315, -43.6146,1.10000,0.90000,1.10000,0.90000
 70602,'SACAVEM     ',  63.0000,1,   6,  10,   3,1.00784, -44.1934,1.10000,0.90000,1.10000,0.90000
 70603,'ERMESIN     ',  63.0000,1,   6,   4,   3,1.01127, -41.8126,1.10000,0.90000,1.10000,0.90000
 70604,'SETUBAL     ',  63.0000,1,   6,  11,   3,1.00253, -41.5170,1.10000,0.90000,1.10000,0.90000
 70605,'F.ALENT     ',  63.0000,1,   6,  12,   3,0.99075, -39.6569,1.10000,0.90000,1.10000,0.90000
 70606,'PEREIRO     ',  63.0000,1,   6,   6,   3,1.00365, -44.2885,1.10000,0.90000,1.10000,0.90000
 70607,'POCINHO     ',  63.0000,1,   6,   3,   3,1.00529, -40.7658,1.10000,0.90000,1.10000,0.90000
 70608,'VERMOIM     ',  63.0000,1,   6,   4,   3,1.01374, -49.5841,1.10000,0.90000,1.10000,0.90000
 70609,'P.ALTO      ',  63.0000,1,   6,  11,   3,0.99686, -41.2238,1.10000,0.90000,1.10000,0.90000
 70610,'V.CHA       ',  63.0000,1,   6,   5,   3,1.00862, -43.6933,1.10000,0.90000,1.10000,0.90000
 70611,'A.MIRA      ',  63.0000,1,   6,  10,   3,1.01330, -42.9582,1.10000,0.90000,1.10000,0.90000
 70612,'ESTARRE     ',  63.0000,1,   6,   4,   3,1.01381, -44.4821,1.10000,0.90000,1.10000,0.90000
 70613,'TUNES       ',  63.0000,1,   6,  13,   3,0.98938, -44.2887,1.10000,0.90000,1.10000,0.90000
 70614,'BATALHA     ',  63.0000,1,   6,   8,   3,1.00939, -43.4382,1.10000,0.90000,1.10000,0.90000
 70615,'F.FERRO     ',  63.0000,1,   6,  11,   3,0.99674, -42.4893,1.10000,0.90000,1.10000,0.90000
 70616,'R.MAIOR     ',  63.0000,1,   6,   9,   3,1.01552, -43.6059,1.10000,0.90000,1.10000,0.90000
 70618,'CARREGA     ',  63.0000,1,   6,  10,   3,1.01486, -43.4617,1.10000,0.90000,1.10000,0.90000
 70619,'SINES       ',  63.0000,1,   6,  12,   3,1.00155, -37.2549,1.10000,0.90000,1.10000,0.90000
 70620,'VALDIGE     ',  63.0000,1,   6,   2,   3,1.01138, -38.9235,1.10000,0.90000,1.10000,0.90000
 70622,'RIBADAV     ',  63.0000,1,   6,   1,   3,1.00279, -39.9813,1.10000,0.90000,1.10000,0.90000
 70623,'MOURISC     ',  63.0000,1,   6,   6,   3,1.00748, -44.2620,1.10000,0.90000,1.10000,0.90000
 70624,'CANELAS     ',  63.0000,1,   6,   4,   3,1.01539, -43.1169,1.10000,0.90000,1.10000,0.90000
 70625,'FANHOES     ',  63.0000,1,   6,  10,   3,1.00607, -41.9122,1.10000,0.90000,1.10000,0.90000
 70627,'GUIMARA     ',  63.0000,1,   6,   1,   3,0.99773, -39.6933,1.10000,0.90000,1.10000,0.90000
 70628,'MOGOFOR     ',  63.0000,1,   6,   6,   3,1.00681, -39.9577,1.10000,0.90000,1.10000,0.90000
 70630,'POMBAL      ',  63.0000,1,   6,   8,   3,1.00748, -39.3320,1.10000,0.90000,1.10000,0.90000
 70631,'V.FRIA      ',  63.0000,1,   6,   1,   3,1.00580, -39.9366,1.10000,0.90000,1.10000,0.90000
 70632,'CUSTOIA     ',  63.0000,1,   6,   4,   3,1.00838, -42.2188,1.10000,0.90000,1.10000,0.90000
 70634,'CARRICH     ',  63.0000,1,   6,  10,   3,1.01157, -44.0144,1.10000,0.90000,1.10000,0.90000
 70635,'TRAJOUC     ',  63.0000,1,   6,  10,   3,1.01317, -47.2484,1.10000,0.90000,1.10000,0.90000
 70636,'FEIRA       ',  63.0000,4,   6,   4,   3,1.00000,   0.0000,1.10000,0.90000,1.10000,0.90000
 70637,'RECAREI     ',  63.0000,1,   6,   4,   3,1.01038, -40.5548,1.10000,0.90000,1.10000,0.90000
 70638,'S.RIOS      ',  63.0000,1,   6,  10,   3,1.00744, -44.9445,1.10000,0.90000,1.10000,0.90000
 70639,'EVORA       ',  63.0000,1,   6,  12,   3,0.99013, -42.6791,1.10000,0.90000,1.10000,0.90000
 70640,'TRAFARIA    ',  63.0000,1,   6,  11,   3,0.99738, -42.9676,1.10000,0.90000,1.10000,0.90000
 70641,'FAFE        ',  63.0000,4,   6,   1,   3,1.00000,   0.0000,1.10000,0.90000,1.10000,0.90000
 70642,'A.S.JOAO    ',  63.0000,4,   6,  10,   3,1.00000,   0.0000,1.10000,0.90000,1.10000,0.90000
 70643,'PRACANA     ',  63.0000,1,   6,  14,   3,1.00223, -47.2022,1.10000,0.90000,1.10000,0.90000
 70646,'TORRAO      ',  63.0000,1,   6,   4,   3,1.00855, -40.8663,1.10000,0.90000,1.10000,0.90000
 70648,'LAVOS       ',  63.0000,1,   6,   6,   3,1.01304, -37.5085,1.10000,0.90000,1.10000,0.90000
 70655,'CHAVES      ',  63.0000,1,   6,   1,   3,1.00090, -38.1216,1.10000,0.90000,1.10000,0.90000
 70656,'ESTOI       ',  63.0000,1,   6,  13,   3,0.99405, -45.8601,1.10000,0.90000,1.10000,0.90000
 70657,'FALAGUE     ',  63.0000,1,   6,  14,   3,1.00223, -47.2017,1.10000,0.90000,1.10000,0.90000
 70661,'OLEIROS     ',  63.0000,1,   6,   1,   3,1.00252, -40.8093,1.10000,0.90000,1.10000,0.90000
 70662,'FERRO       ',  63.0000,1,   6,   5,   3,0.99908, -44.1169,1.10000,0.90000,1.10000,0.90000
 70664,'MOGADOU     ',  63.0000,1,   6,   3,   3,1.01022, -36.6492,1.10000,0.90000,1.10000,0.90000
 70665,'SANTARE     ',  63.0000,1,   6,   9,   3,1.00598, -43.3948,1.10000,0.90000,1.10000,0.90000
 70666,'CHAFARI     ',  63.0000,1,   6,   5,   3,1.00060, -43.6182,1.10000,0.90000,1.10000,0.90000
 70668,'CARRAPAT    ',  63.0000,1,   6,   4,   3,1.01574, -39.6488,1.10000,0.90000,1.10000,0.90000
 70670,'PRELADA     ',  63.0000,1,   6,   4,   3,0.98838, -53.0063,1.10000,0.90000,1.10000,0.90000
 70676,'PARAIMO     ',  63.0000,1,   6,   6,   3,1.00976, -39.7324,1.10000,0.90000,1.10000,0.90000
 70677,'PORTIMAO    ',  63.0000,1,   6,  13,   3,0.99299, -42.9762,1.10000,0.90000,1.10000,0.90000
 70678,'BODIOSA     ',  63.0000,1,   6,   5,   3,1.01253, -41.7419,1.10000,0.90000,1.10000,0.90000
 70679,'PENELA      ',  63.0000,1,   6,   6,   3,1.00168, -42.5676,1.10000,0.90000,1.10000,0.90000
 70681,'C.BRANCO    ',  63.0000,1,   6,   7,   3,1.00265, -46.4796,1.10000,0.90000,1.10000,0.90000
 70683,'FRADES      ',  63.0000,1,   6,   1,   3,1.00666, -35.8072,1.10000,0.90000,1.10000,0.90000
 70684,'ALQUEVA     ',  63.0000,1,   6,  12,   3,0.98251, -39.6690,1.10000,0.90000,1.10000,0.90000
 70685,'M.CAVALE    ',  63.0000,1,   6,   3,   3,1.01382, -35.9015,1.10000,0.90000,1.10000,0.90000
 70686,'CARVOEIR    ',  63.0000,1,   6,  10,   3,1.00603, -43.3768,1.10000,0.90000,1.10000,0.90000
 70687,'V.P.AGUI    ',  63.0000,1,   6,   2,   3,1.01313, -38.1686,1.10000,0.90000,1.10000,0.90000
 70688,'ZAMBUJAL    ',  63.0000,4,   6,  10,   3,1.00000,   0.0000,1.10000,0.90000,1.10000,0.90000
 70691,'TABUA       ',  63.0000,1,   6,   6,   3,1.00245, -43.3616,1.10000,0.90000,1.10000,0.90000
 70692,'ESTREMOZ    ',  63.0000,1,   6,  12,   3,1.00401, -50.1712,1.10000,0.90000,1.10000,0.90000
 70693,'VALPACOS    ',  63.0000,4,   6,   1,   3,1.00000,   0.0000,1.10000,0.90000,1.10000,0.90000
 71020,'V.NOVA      ', 150.0000,1,   6,   1,   2,1.04394, -36.3202,1.10000,0.90000,1.10000,0.90000
 71030,'SALAMON     ', 150.0000,1,   6,   1,   2,1.04176, -36.3876,1.10000,0.90000,1.10000,0.90000
 71040,'CABRIL      ', 150.0000,1,   6,   7,   2,1.04000, -40.3001,1.10000,0.90000,1.10000,0.90000
 71060,'BOUCA       ', 150.0000,1,   6,   7,   2,1.03695, -40.7143,1.10000,0.90000,1.10000,0.90000
 71100,'A.RABAG     ', 150.0000,1,   6,   1,   2,1.03812, -36.5860,1.10000,0.90000,1.10000,0.90000
 71110,'TABUACO     ', 150.0000,1,   6,   2,   2,1.04000, -34.7051,1.10000,0.90000,1.10000,0.90000
 71130,'V.FURNA     ', 150.0000,1,   6,   1,   2,1.03979, -37.0380,1.10000,0.90000,1.10000,0.90000
 71137,'PMFF4/SX    ', 150.0000,1,   6,  11,   2,1.02073, -40.6698,1.10000,0.90000,1.10000,0.90000
 71150,'FRATEL      ', 150.0000,1,   6,  14,   2,1.02108, -46.2519,1.10000,0.90000,1.10000,0.90000
 71270,'C.FRADES    ', 150.0000,1,   6,   1,   2,1.04434, -36.3659,1.10000,0.90000,1.10000,0.90000
 71277,'CDRA2/GR    ', 150.0000,1,   6,   1,   2,1.03759, -37.8097,1.10000,0.90000,1.10000,0.90000
 71557,'ARFRD       ', 150.0000,1,   6,   1,   2,1.03812, -36.5860,1.10000,0.90000,1.10000,0.90000
 71617,'VNRA/OR     ', 150.0000,4,   6,   1,   2,1.00000,   0.0000,1.10000,0.90000,1.10000,0.90000
 71771,'C.SINES1    ', 150.0000,1,   6,  12,   2,1.04500, -32.7757,1.10000,0.90000,1.10000,0.90000
 71826,'FRDRA/PD    ', 150.0000,1,   6,   1,   2,1.04002, -37.2991,1.10000,0.90000,1.10000,0.90000
 71827,'FDCD/PDV    ', 150.0000,4,   6,   1,   2,1.00000,   0.0000,1.10000,0.90000,1.10000,0.90000
 71837,'CDRA/FRD    ', 150.0000,1,   6,   1,   2,1.04012, -37.0345,1.10000,0.90000,1.10000,0.90000
 71846,'PMMP/PE     ', 150.0000,1,   6,  11,   2,1.02539, -38.9029,1.10000,0.90000,1.10000,0.90000
 71847,'PMER/PE     ', 150.0000,1,   6,  11,   2,1.02435, -39.9649,1.10000,0.90000,1.10000,0.90000
 71867,'PAQG2       ', 150.0000,1,   6,  11,   2,1.01974, -40.4379,1.10000,0.90000,1.10000,0.90000
 71911,'FRCC1/RD    ', 150.0000,1,   6,   7,   2,1.01991, -45.9126,1.10000,0.90000,1.10000,0.90000
 71912,'FRCC2/RD    ', 150.0000,1,   6,   7,   2,1.01991, -45.9010,1.10000,0.90000,1.10000,0.90000
 71987,'VMED3/MA    ', 150.0000,1,   6,   4,   2,1.03936, -38.8407,1.10000,0.90000,1.10000,0.90000
 72011,'C.BODE1     ', 220.0000,1,   6,   7,   2,1.04828, -41.9949,1.10000,0.90000,1.10000,0.90000
 72012,'C.BODE2     ', 220.0000,1,   6,   7,   2,1.04822, -41.9847,1.10000,0.90000,1.10000,0.90000
 72013,'C.BODE3     ', 220.0000,1,   6,   7,   2,1.04828, -41.9949,1.10000,0.90000,1.10000,0.90000
 72027,'RRCT/MAA    ', 220.0000,1,   6,   4,   2,1.03444, -39.1365,1.10000,0.90000,1.10000,0.90000
 72080,'MIRANDA     ', 220.0000,1,   6,   3,   2,1.05261, -35.5465,1.10000,0.90000,1.10000,0.90000
 72090,'BEMPOST     ', 220.0000,1,   6,   3,   2,1.05908, -35.5814,1.10000,0.90000,1.10000,0.90000
 72127,'TGCN/EJ     ', 220.0000,1,   6,   4,   2,1.03966, -38.4452,1.10000,0.90000,1.10000,0.90000
 72160,'VALEIRA     ', 220.0000,1,   6,   2,   2,1.04345, -37.7873,1.10000,0.90000,1.10000,0.90000
 72170,'AGUIEIR     ', 220.0000,1,   6,   6,   2,1.04416, -41.9386,1.10000,0.90000,1.10000,0.90000
 72190,'C.POCIN     ', 220.0000,1,   6,   3,   2,1.06084, -38.3406,1.10000,0.90000,1.10000,0.90000
 72267,'BAVG1/AM    ', 220.0000,1,   6,   2,   2,1.04502, -38.6064,1.10000,0.90000,1.10000,0.90000
 72287,'PIPR/MR     ', 220.0000,1,   6,   6,   2,1.04370, -40.6169,1.10000,0.90000,1.10000,0.90000
 72290,'B.SABOR     ', 220.0000,4,   6,   3,   2,1.00000,   0.0000,1.10000,0.90000,1.10000,0.90000
 72307,'PRRM2/PB    ', 220.0000,1,   6,   8,   2,1.04474, -41.1535,1.10000,0.90000,1.10000,0.90000
 72346,'FNAM2/CH    ', 220.0000,1,   6,  10,   2,1.03786, -41.9275,1.10000,0.90000,1.10000,0.90000
 72347,'FNAM3/CH    ', 220.0000,1,   6,  10,   2,1.03767, -41.8887,1.10000,0.90000,1.10000,0.90000
 72357,'AMCH/TJ     ', 220.0000,1,   6,  10,   2,1.03678, -41.8359,1.10000,0.90000,1.10000,0.90000
 72421,'XFSVASJ     ', 220.0000,4,   6,  10,   2,1.00000,   0.0000,1.10000,0.90000,1.10000,0.90000
 72591,'PSVLG1      ', 220.0000,4,   6,   4,   2,1.00000,   0.0000,1.10000,0.90000,1.10000,0.90000
 72592,'PSVLG2      ', 220.0000,4,   6,   4,   2,1.00000,   0.0000,1.10000,0.90000,1.10000,0.90000
 72596,'RRVM2/ED    ', 220.0000,1,   6,   4,   2,1.03611, -38.8142,1.10000,0.90000,1.10000,0.90000
 72597,'VGVM4/ED    ', 220.0000,1,   6,   4,   2,1.03469, -39.1274,1.10000,0.90000,1.10000,0.90000
 72627,'PNCFE/RA    ', 220.0000,1,   6,   5,   2,1.03827, -42.9311,1.10000,0.90000,1.10000,0.90000
 72671,'PSPV1       ', 220.0000,1,   6,  10,   2,1.03903, -41.7014,1.10000,0.90000,1.10000,0.90000
 72672,'PSPV2       ', 220.0000,1,   6,  10,   2,1.03906, -41.6928,1.10000,0.90000,1.10000,0.90000
 72673,'PSPV3       ', 220.0000,1,   6,  10,   2,1.03905, -41.6993,1.10000,0.90000,1.10000,0.90000
 72674,'PSPV4       ', 220.0000,1,   6,  10,   2,1.03906, -41.6930,1.10000,0.90000,1.10000,0.90000
 72675,'PSPV5       ', 220.0000,4,   6,  10,   2,1.00000,   0.0000,1.10000,0.90000,1.10000,0.90000
 72677,'CGFN3/SV    ', 220.0000,4,   6,  10,   2,1.00000,   0.0000,1.10000,0.90000,1.10000,0.90000
 72751,'PSPH        ', 220.0000,1,   6,  10,   2,1.03685, -42.0140,1.10000,0.90000,1.10000,0.90000
 72790,'T.OUTEI     ', 220.0000,1,   6,   4,   2,1.04000, -37.8809,1.10000,0.90000,1.10000,0.90000
 72797,'RRCN/TG     ', 220.0000,1,   6,   4,   2,1.03997, -37.9421,1.10000,0.90000,1.10000,0.90000
 72801,'C.TER1      ', 220.0000,1,   6,  10,   2,1.04018, -40.9579,1.10000,0.90000,1.10000,0.90000
 72816,'PRTBA/MT    ', 220.0000,1,   6,   6,   2,1.04323, -41.9748,1.10000,0.90000,1.10000,0.90000
 72817,'AGPR2/MT    ', 220.0000,1,   6,   6,   2,1.04418, -41.9389,1.10000,0.90000,1.10000,0.90000
 72826,'CFVC2/GV    ', 220.0000,1,   6,   5,   2,1.04699, -41.9232,1.10000,0.90000,1.10000,0.90000
 72827,'CFVC1/GV    ', 220.0000,1,   6,   5,   2,1.04703, -41.9303,1.10000,0.90000,1.10000,0.90000
 72836,'CFFE2/SO    ', 220.0000,1,   6,   5,   2,1.04659, -41.8691,1.10000,0.90000,1.10000,0.90000
 72837,'CFFE1/SO    ', 220.0000,1,   6,   5,   2,1.04658, -41.8760,1.10000,0.90000,1.10000,0.90000
 72921,'FECC1/FL    ', 220.0000,1,   6,   7,   2,1.03487, -43.1260,1.10000,0.90000,1.10000,0.90000
 72922,'FECC2/FL    ', 220.0000,1,   6,   7,   2,1.03487, -43.1206,1.10000,0.90000,1.10000,0.90000
 72987,'PPTBA/FL    ', 220.0000,1,   6,   6,   2,1.04258, -41.9374,1.10000,0.90000,1.10000,0.90000
 72997,'VGAMM1/S    ', 220.0000,1,   6,   2,   2,1.04499, -38.5439,1.10000,0.90000,1.10000,0.90000
 74257,'PMSN3/FN    ', 400.0000,1,   6,  11,   2,1.04890, -37.2670,1.10000,0.90000,1.10000,0.90000
 74261,'C.AV1       ', 400.0000,1,   6,  12,   2,1.03960, -39.1180,1.10000,0.90000,1.10000,0.90000
 74262,'C.AV2       ', 400.0000,4,   6,  12,   2,1.00000,   0.0000,1.10000,0.90000,1.10000,0.90000
 74300,'V.NOVA      ', 400.0000,4,   6,   1,   2,1.00000,   0.0000,1.10000,0.90000,1.10000,0.90000
 74761,'C.SETUB1    ', 400.0000,1,   6,  11,   2,1.04807, -38.0623,1.10000,0.90000,1.10000,0.90000
 74762,'C.SETUB2    ', 400.0000,1,   6,  11,   2,1.04808, -38.0623,1.10000,0.90000,1.10000,0.90000
 74763,'C.SETUB3    ', 400.0000,1,   6,  11,   2,1.04809, -38.0624,1.10000,0.90000,1.10000,0.90000
 74764,'C.SETUB4    ', 400.0000,1,   6,  11,   2,1.04807, -38.0623,1.10000,0.90000,1.10000,0.90000
 74772,'C.SINES2    ', 400.0000,1,   6,  12,   2,1.04764, -34.8065,1.10000,0.90000,1.10000,0.90000
 74773,'C.SINES3    ', 400.0000,1,   6,  12,   2,1.04347, -34.7597,1.10000,0.90000,1.10000,0.90000
 74774,'C.SINES4    ', 400.0000,1,   6,  12,   2,1.04348, -34.7616,1.10000,0.90000,1.10000,0.90000
 74781,'C.PG1       ', 400.0000,1,   6,  14,   2,1.04205, -38.3492,1.10000,0.90000,1.10000,0.90000
 74782,'C.PG2       ', 400.0000,1,   6,  14,   2,1.04205, -38.3492,1.10000,0.90000,1.10000,0.90000
 74802,'C.TER2      ', 400.0000,1,   6,  10,   2,1.04000, -38.1682,1.10000,0.90000,1.10000,0.90000
 74803,'C.TER3      ', 400.0000,1,   6,  10,   2,1.04002, -38.1798,1.10000,0.90000,1.10000,0.90000
 74811,'C.LR1       ', 400.0000,1,   6,   6,   2,1.04155, -35.4856,1.10000,0.90000,1.10000,0.90000
 74812,'C.LR2       ', 400.0000,1,   6,   6,   2,1.04000, -35.0588,1.10000,0.90000,1.10000,0.90000
 75102,'MAIA        ', 150.0000,1,   6,   4,   2,1.03936, -38.8408,1.10000,0.90000,1.10000,0.90000
 75103,'N.CORVO     ', 150.0000,1,   6,  12,   2,1.01009, -40.1707,1.10000,0.90000,1.10000,0.90000
 75104,'Q.ANJO      ', 150.0000,1,   6,  11,   2,1.02095, -40.3713,1.10000,0.90000,1.10000,0.90000
 75107,'PEGOES      ', 150.0000,1,   6,  11,   2,1.02426, -39.9839,1.10000,0.90000,1.10000,0.90000
 75109,'FOGUETEI    ', 150.0000,1,   6,  11,   2,1.02011, -40.8766,1.10000,0.90000,1.10000,0.90000
 75110,'Q.GRANDE    ', 150.0000,1,   6,  11,   2,1.01972, -40.4662,1.10000,0.90000,1.10000,0.90000
 75115,'RODAO       ', 150.0000,1,   6,   7,   2,1.01990, -45.9164,1.10000,0.90000,1.10000,0.90000
 75116,'LUZIANES    ', 150.0000,1,   6,  12,   2,1.01731, -39.7509,1.10000,0.90000,1.10000,0.90000
 75117,'LUSOSIDE    ', 150.0000,1,   6,  11,   2,1.02061, -40.6964,1.10000,0.90000,1.10000,0.90000
 75157,'COG-CSNC    ', 150.0000,2,   6,  12,   8,1.03685, -34.8367,1.10000,0.90000,1.10000,0.90000
 75202,'MAIA        ', 220.0000,1,   6,   4,   2,1.03398, -39.2063,1.10000,0.90000,1.10000,0.90000
 75205,'GOUVEIA     ', 220.0000,1,   6,   5,   2,1.04703, -41.9352,1.10000,0.90000,1.10000,0.90000
 75206,'MORTAGUA    ', 220.0000,1,   6,   6,   2,1.04419, -41.9442,1.10000,0.90000,1.10000,0.90000
 75208,'SOBRAL      ', 220.0000,1,   6,   5,   2,1.04658, -41.8764,1.10000,0.90000,1.10000,0.90000
 75212,'SEIXAL      ', 220.0000,1,   6,  11,   2,1.02421, -43.1471,1.10000,0.90000,1.10000,0.90000
 75218,'FATELA      ', 220.0000,1,   6,   7,   2,1.03487, -43.1270,1.10000,0.90000,1.10000,0.90000
 76084,'XFVM4       ',  63.0000,4,   6,   4,   3,1.00000,   0.0000,1.10000,0.90000,1.10000,0.90000
 76087,'XFVM7       ',  63.0000,1,   6,   4,   2,1.01374, -49.5841,1.10000,0.90000,1.10000,0.90000
 76088,'XFVM8       ',  63.0000,1,   6,   4,   2,1.01374, -49.5841,1.10000,0.90000,1.10000,0.90000
 76111,'XFAM1       ',  63.0000,1,   6,  10,   3,1.01612, -41.8975,1.10000,0.90000,1.10000,0.90000
 76112,'XFAM2       ',  63.0000,1,   6,  10,   3,1.01314, -41.9154,1.10000,0.90000,1.10000,0.90000
 76113,'XFAM3       ',  63.0000,1,   6,  10,   3,1.01313, -41.9103,1.10000,0.90000,1.10000,0.90000
 76180,'RAIVA       ',  63.0000,1,   6,   6,   3,1.00338, -44.2866,1.10000,0.90000,1.10000,0.90000
 76181,'CARREGA1    ',  63.0000,1,   6,  10,   3,1.01730, -42.7179,1.10000,0.90000,1.10000,0.90000
 76182,'CARREGA2    ',  63.0000,1,   6,  10,   3,1.01742, -42.7246,1.10000,0.90000,1.10000,0.90000
 76183,'CARREGA3    ',  63.0000,1,   6,  10,   3,1.01762, -42.7076,1.10000,0.90000,1.10000,0.90000
 76200,'CRESTUM     ',  63.0000,1,   6,   4,   3,1.02898, -43.0567,1.10000,0.90000,1.10000,0.90000
 76223,'XFRA3       ',  63.0000,1,   6,   1,   3,1.01532, -37.4493,1.10000,0.90000,1.10000,0.90000
 76224,'XFRA4       ',  63.0000,1,   6,   1,   3,1.01532, -37.4491,1.10000,0.90000,1.10000,0.90000
 76225,'XFRA5       ',  63.0000,1,   6,   1,   3,0.99354, -39.1264,1.10000,0.90000,1.10000,0.90000
 76226,'XFRA6       ',  63.0000,1,   6,   1,   3,0.99395, -39.1307,1.10000,0.90000,1.10000,0.90000
 76227,'XFRA7       ',  63.0000,1,   6,   1,   3,0.99913, -39.5268,1.10000,0.90000,1.10000,0.90000
 76230,'TOUVEDO     ',  63.0000,1,   6,   1,   3,1.03000, -35.7859,1.10000,0.90000,1.10000,0.90000
 76241,'XFCN1       ',  63.0000,1,   6,   4,   3,1.01239, -41.5418,1.10000,0.90000,1.10000,0.90000
 76242,'XFCN2       ',  63.0000,1,   6,   4,   3,1.01222, -41.5310,1.10000,0.90000,1.10000,0.90000
 76243,'XFCN3       ',  63.0000,1,   6,   4,   3,1.01204, -41.5501,1.10000,0.90000,1.10000,0.90000
 76244,'XFCN4       ',  63.0000,1,   6,   4,   3,1.01171, -41.5434,1.10000,0.90000,1.10000,0.90000
 76250,'CALDEIR     ',  63.0000,1,   6,   5,   3,1.01887, -43.6589,1.10000,0.90000,1.10000,0.90000
 76280,'R.DIO       ',  63.0000,1,   6,   6,   2,1.00757, -44.2637,1.10000,0.90000,1.10000,0.90000
 76290,'B.SABOR     ',  63.0000,4,   6,   3,   3,1.00000,   0.0000,1.10000,0.90000,1.10000,0.90000
 76712,'T.OUTEI     ',  63.0000,1,   6,   4,   3,1.02732, -43.6512,1.10000,0.90000,1.10000,0.90000
 76992,'BELVER2     ',  63.0000,1,   6,   7,   3,1.02000, -40.4805,1.10000,0.90000,1.10000,0.90000
 77016,'HID-ZR      ',  63.0000,2,   6,   7,   6,0.99315, -43.6146,1.10000,0.90000,1.10000,0.90000
 77018,'COG-ZR      ',  63.0000,2,   6,   7,   8,0.99316, -43.6123,1.10000,0.90000,1.10000,0.90000