0,   100.00, 33, 0, 1, 50.00     / PSS(R)E-33.4    WED, JUL 21 2021  16:54


 11015,'CARTELLE    ', 400.0000,1,   1,  99, 111,1.13835, -28.3134,1.10000,0.90000,1.10000,0.90000
 11016,'CARTELLE    ', 400.0000,1,   1,  99, 111,1.13835, -28.3074,1.10000,0.90000,1.10000,0.90000
 14030,'CEDILLO     ', 400.0000,1,   1,  99, 116,1.11340, -38.9953,1.10000,0.90000,1.10000,0.90000
 15013,'BROVALES    ', 400.0000,1,   1,  99, 111,1.09663, -39.7362,1.10000,0.90000,1.10000,0.90000
 22010,'ALDEADAV    ', 220.0000,1,   1,  99, 134,1.16687, -37.3691,1.10000,0.90000,1.10000,0.90000
 22011,'ALDEADAV    ', 220.0000,1,   1,  99, 134,1.17723, -36.2392,1.10000,0.90000,1.10000,0.90000
 22195,'SAUCELLE    ', 220.0000,1,   1,  99, 112,1.15995, -37.3403,1.10000,0.90000,1.10000,0.90000
 70101,'ZEZERE      ', 150.0000,1,   6,   7,   2,1.09303, -40.6730,1.10000,0.90000,1.10000,0.90000
 70103,'ERMESIN     ', 150.0000,1,   6,   4,   2,1.11492, -38.3991,1.10000,0.90000,1.10000,0.90000
 70104,'SETUBAL     ', 150.0000,1,   6,  11,   2,1.08483, -39.1386,1.10000,0.90000,1.10000,0.90000
 70105,'F.ALENT     ', 150.0000,1,   6,  12,   2,1.07612, -37.6751,1.10000,0.90000,1.10000,0.90000
 70108,'VERMOIM     ', 150.0000,1,   6,   4,   2,1.11641, -38.3453,1.10000,0.90000,1.10000,0.90000
 70109,'P.ALTO      ', 150.0000,1,   6,  11,   2,1.08142, -39.5938,1.10000,0.90000,1.10000,0.90000
 70113,'TUNES       ', 150.0000,1,   6,  13,   2,1.06462, -41.8262,1.10000,0.90000,1.10000,0.90000
 70115,'F.FERRO     ', 150.0000,1,   6,  11,   2,1.08305, -40.0153,1.10000,0.90000,1.10000,0.90000
 70117,'PALMELA     ', 150.0000,1,   6,  11,   2,1.08466, -38.9832,1.10000,0.90000,1.10000,0.90000
 70119,'SINES       ', 150.0000,1,   6,  12,   2,1.08582, -35.0061,1.10000,0.90000,1.10000,0.90000
 70120,'VALDIGE     ', 150.0000,1,   6,   2,   2,1.09923, -35.6480,1.10000,0.90000,1.10000,0.90000
 70122,'RIBADAV     ', 150.0000,1,   6,   1,   2,1.11426, -37.4760,1.10000,0.90000,1.10000,0.90000
 70127,'GUIMARA     ', 150.0000,1,   6,   1,   2,1.11252, -37.6254,1.10000,0.90000,1.10000,0.90000
 70131,'V.FRIA      ', 150.0000,1,   6,   1,   2,1.10764, -38.6495,1.10000,0.90000,1.10000,0.90000
 70139,'EVORA       ', 150.0000,1,   6,  12,   2,1.08858, -40.0935,1.10000,0.90000,1.10000,0.90000
 70140,'TRAFARIA    ', 150.0000,1,   6,  11,   2,1.08138, -40.2367,1.10000,0.90000,1.10000,0.90000
 70141,'FAFE        ', 150.0000,1,   6,   1,   2,1.11662, -37.4994,1.10000,0.90000,1.10000,0.90000
 70150,'OURIQUE     ', 150.0000,1,   6,  12,   2,1.07157, -38.9775,1.10000,0.90000,1.10000,0.90000
 70155,'CHAVES      ', 150.0000,1,   6,   1,   2,1.09716, -36.9405,1.10000,0.90000,1.10000,0.90000
 70156,'ESTOI       ', 150.0000,1,   6,  13,   2,1.05226, -42.5853,1.10000,0.90000,1.10000,0.90000
 70157,'FALAGUE     ', 150.0000,1,   6,  14,   2,1.09354, -45.4252,1.10000,0.90000,1.10000,0.90000
 70161,'OLEIROS     ', 150.0000,1,   6,   1,   2,1.10917, -38.3119,1.10000,0.90000,1.10000,0.90000
 70163,'RUIVAES     ', 150.0000,1,   6,   1,   2,1.11082, -37.7584,1.10000,0.90000,1.10000,0.90000
 70171,'ERMIDAS     ', 150.0000,1,   6,  12,   2,1.08056, -36.5090,1.10000,0.90000,1.10000,0.90000
 70172,'M.PEDRA     ', 150.0000,1,   6,  12,   2,1.08576, -37.2814,1.10000,0.90000,1.10000,0.90000
 70173,'SABOIA      ', 150.0000,1,   6,  12,   2,1.07292, -39.0290,1.10000,0.90000,1.10000,0.90000
 70177,'PORTIMAO    ', 150.0000,1,   6,  13,   2,1.06582, -41.2845,1.10000,0.90000,1.10000,0.90000
 70180,'CANICAD     ', 150.0000,1,   6,   1,   2,1.11275, -37.0492,1.10000,0.90000,1.10000,0.90000
 70181,'C.BRANCO    ', 150.0000,1,   6,   7,   2,1.09040, -44.4576,1.10000,0.90000,1.10000,0.90000
 70182,'PEDRALVA    ', 150.0000,1,   6,   1,   2,1.11082, -37.6254,1.10000,0.90000,1.10000,0.90000
 70183,'FRADES      ', 150.0000,1,   6,   1,   2,1.11380, -36.5094,1.10000,0.90000,1.10000,0.90000
 70192,'ESTREMOZ    ', 150.0000,1,   6,  12,   2,1.09269, -46.9092,1.10000,0.90000,1.10000,0.90000
 70201,'ZEZERE      ', 220.0000,1,   6,   7,   2,1.11792, -41.0297,1.10000,0.90000,1.10000,0.90000
 70202,'SACAVEM     ', 220.0000,1,   6,  10,   2,1.10671, -40.7336,1.10000,0.90000,1.10000,0.90000
 70206,'PEREIRO     ', 220.0000,1,   6,   6,   2,1.11754, -41.0060,1.10000,0.90000,1.10000,0.90000
 70207,'POCINHO     ', 220.0000,1,   6,   3,   2,1.14690, -38.1104,1.10000,0.90000,1.10000,0.90000
 70208,'VERMOIM     ', 220.0000,1,   6,   4,   2,1.10626, -38.6385,1.10000,0.90000,1.10000,0.90000
 70210,'V.CHA       ', 220.0000,1,   6,   5,   2,1.12197, -41.2790,1.10000,0.90000,1.10000,0.90000
 70211,'A.MIRA      ', 220.0000,1,   6,  10,   2,1.10531, -40.8271,1.10000,0.90000,1.10000,0.90000
 70212,'ESTARRE     ', 220.0000,1,   6,   4,   2,1.10738, -40.1044,1.10000,0.90000,1.10000,0.90000
 70214,'BATALHA     ', 220.0000,1,   6,   8,   2,1.11349, -40.2730,1.10000,0.90000,1.10000,0.90000
 70216,'R.MAIOR     ', 220.0000,1,   6,   9,   2,1.10841, -39.8030,1.10000,0.90000,1.10000,0.90000
 70218,'CARREGA     ', 220.0000,1,   6,  10,   2,1.10630, -40.0995,1.10000,0.90000,1.10000,0.90000
 70220,'VALDIGE     ', 220.0000,1,   6,   2,   2,1.12038, -37.9334,1.10000,0.90000,1.10000,0.90000
 70223,'MOURISC     ', 220.0000,1,   6,   6,   2,1.11349, -40.4728,1.10000,0.90000,1.10000,0.90000
 70224,'CANELAS     ', 220.0000,1,   6,   4,   2,1.11012, -38.0323,1.10000,0.90000,1.10000,0.90000
 70225,'FANHOES     ', 220.0000,1,   6,  10,   2,1.10806, -40.6040,1.10000,0.90000,1.10000,0.90000
 70226,'ARMAMAR     ', 220.0000,1,   6,   2,   2,1.12464, -38.1235,1.10000,0.90000,1.10000,0.90000
 70228,'MOGOFOR     ', 220.0000,1,   6,   6,   2,1.11857, -39.8368,1.10000,0.90000,1.10000,0.90000
 70230,'POMBAL      ', 220.0000,1,   6,   8,   2,1.11653, -40.2554,1.10000,0.90000,1.10000,0.90000
 70232,'CUSTOIA     ', 220.0000,1,   6,   4,   2,1.10594, -38.7948,1.10000,0.90000,1.10000,0.90000
 70233,'PICOTE      ', 220.0000,1,   6,   3,   2,1.16607, -36.1115,1.10000,0.90000,1.10000,0.90000
 70234,'CARRICH     ', 220.0000,1,   6,  10,   2,1.10607, -40.9983,1.10000,0.90000,1.10000,0.90000
 70235,'TRAJOUC     ', 220.0000,1,   6,  10,   2,1.10502, -41.3779,1.10000,0.90000,1.10000,0.90000
 70237,'RECAREI     ', 220.0000,1,   6,   4,   2,1.11102, -37.8297,1.10000,0.90000,1.10000,0.90000
 70238,'S.RIOS      ', 220.0000,1,   6,  10,   2,1.10535, -41.0678,1.10000,0.90000,1.10000,0.90000
 70246,'TORRAO      ', 220.0000,1,   6,   4,   2,1.11078, -38.6285,1.10000,0.90000,1.10000,0.90000
 70254,'REGUA       ', 220.0000,1,   6,   2,   2,1.12067, -37.8886,1.10000,0.90000,1.10000,0.90000
 70262,'FERRO       ', 220.0000,1,   6,   5,   2,1.11423, -42.1190,1.10000,0.90000,1.10000,0.90000
 70264,'MOGADOU     ', 220.0000,1,   6,   3,   2,1.15810, -36.5116,1.10000,0.90000,1.10000,0.90000
 70265,'SANTARE     ', 220.0000,1,   6,   9,   2,1.11012, -40.7462,1.10000,0.90000,1.10000,0.90000
 70266,'CHAFARI     ', 220.0000,1,   6,   5,   2,1.12647, -40.7692,1.10000,0.90000,1.10000,0.90000
 70268,'CARRAPA     ', 220.0000,1,   6,   4,   2,1.11319, -38.8309,1.10000,0.90000,1.10000,0.90000
 70269,'URRO        ', 220.0000,1,   6,   2,   2,1.11117, -37.8447,1.10000,0.90000,1.10000,0.90000
 70276,'PARAIMO     ', 220.0000,1,   6,   6,   2,1.11838, -39.6847,1.10000,0.90000,1.10000,0.90000
 70278,'BODIOSA     ', 220.0000,1,   6,   5,   2,1.12144, -39.4259,1.10000,0.90000,1.10000,0.90000
 70279,'PENELA      ', 220.0000,1,   6,   6,   2,1.11825, -41.0722,1.10000,0.90000,1.10000,0.90000
 70281,'C.BRANCO    ', 220.0000,1,   6,   7,   2,1.09900, -42.8774,1.10000,0.90000,1.10000,0.90000
 70285,'M.CAVALE    ', 220.0000,1,   6,   3,   2,1.17190, -36.1213,1.10000,0.90000,1.10000,0.90000
 70286,'CARVOEIR    ', 220.0000,1,   6,  10,   2,1.10639, -40.7581,1.10000,0.90000,1.10000,0.90000
 70287,'V.P.AGUI    ', 220.0000,1,   6,   2,   2,1.12048, -37.8901,1.10000,0.90000,1.10000,0.90000
 70289,'LAGOACA     ', 220.0000,1,   6,   3,   2,1.17008, -36.0519,1.10000,0.90000,1.10000,0.90000
 70291,'TÁBUA       ', 220.0000,1,   6,   6,   2,1.11632, -41.1347,1.10000,0.90000,1.10000,0.90000
 70405,'F.ALENT     ', 400.0000,1,   6,  12,   2,1.10163, -36.8374,1.10000,0.90000,1.10000,0.90000
 70411,'A.MIRA      ', 400.0000,1,   6,  10,   2,1.11089, -38.6556,1.10000,0.90000,1.10000,0.90000
 70414,'BATALHA     ', 400.0000,1,   6,   8,   2,1.11612, -38.0984,1.10000,0.90000,1.10000,0.90000
 70416,'R.MAIOR     ', 400.0000,1,   6,   9,   2,1.11712, -38.0601,1.10000,0.90000,1.10000,0.90000
 70417,'PALMELA     ', 400.0000,1,   6,  11,   2,1.11091, -37.5141,1.10000,0.90000,1.10000,0.90000
 70419,'SINES       ', 400.0000,1,   6,  12,   2,1.10103, -34.8505,1.10000,0.90000,1.10000,0.90000
 70422,'RIBADAV     ', 400.0000,1,   6,   1,   2,1.12027, -33.7989,1.10000,0.90000,1.10000,0.90000
 70425,'FANHOES     ', 400.0000,1,   6,  10,   2,1.10845, -38.5069,1.10000,0.90000,1.10000,0.90000
 70437,'RECAREI     ', 400.0000,1,   6,   4,   2,1.11569, -34.9776,1.10000,0.90000,1.10000,0.90000
 70448,'LAVOS       ', 400.0000,1,   6,   6,   2,1.10816, -35.2522,1.10000,0.90000,1.10000,0.90000
 70451,'A.LINDO     ', 400.0000,1,   6,   1,   2,1.12879, -30.2734,1.10000,0.90000,1.10000,0.90000
 70457,'FALAGUE     ', 400.0000,1,   6,  14,   2,1.11385, -38.4895,1.10000,0.90000,1.10000,0.90000
 70460,'PEGO        ', 400.0000,1,   6,  14,   2,1.11422, -37.7536,1.10000,0.90000,1.10000,0.90000
 70474,'RIBATEJO    ', 400.0000,1,   6,  10,   2,1.10681, -37.6224,1.10000,0.90000,1.10000,0.90000
 70476,'PARAIMO     ', 400.0000,1,   6,   6,   2,1.11817, -37.3866,1.10000,0.90000,1.10000,0.90000
 70482,'PEDRALVA    ', 400.0000,1,   6,   1,   2,1.12392, -32.4437,1.10000,0.90000,1.10000,0.90000
 70484,'ALQUEVA     ', 400.0000,1,   6,  12,   2,1.09786, -38.4674,1.10000,0.90000,1.10000,0.90000
 70563,'RUIVAES     ', 130.0000,1,   6,   1,   2,1.07505, -39.3215,1.10000,0.90000,1.10000,0.90000
 70582,'PEDRALVA    ', 130.0000,1,   6,   1,   2,1.07947, -38.3805,1.10000,0.90000,1.10000,0.90000
 70601,'ZEZERE      ',  63.0000,1,   6,   7,   3,1.05411, -42.4584,1.10000,0.90000,1.10000,0.90000
 70602,'SACAVEM     ',  63.0000,1,   6,  10,   3,1.07447, -42.9249,1.10000,0.90000,1.10000,0.90000
 70603,'ERMESIN     ',  63.0000,1,   6,   4,   3,1.08778, -40.9526,1.10000,0.90000,1.10000,0.90000
 70604,'SETUBAL     ',  63.0000,1,   6,  11,   3,1.06415, -40.5968,1.10000,0.90000,1.10000,0.90000
 70605,'F.ALENT     ',  63.0000,1,   6,  12,   3,1.04548, -38.9377,1.10000,0.90000,1.10000,0.90000
 70606,'PEREIRO     ',  63.0000,1,   6,   6,   3,1.07544, -43.0700,1.10000,0.90000,1.10000,0.90000
 70607,'POCINHO     ',  63.0000,1,   6,   3,   3,1.09307, -40.1343,1.10000,0.90000,1.10000,0.90000
 70608,'VERMOIM     ',  63.0000,1,   6,   4,   3,1.09881, -47.5729,1.10000,0.90000,1.10000,0.90000
 70609,'P.ALTO      ',  63.0000,1,   6,  11,   3,1.05792, -40.3347,1.10000,0.90000,1.10000,0.90000
 70610,'V.CHA       ',  63.0000,1,   6,   5,   3,1.08256, -42.6283,1.10000,0.90000,1.10000,0.90000
 70611,'A.MIRA      ',  63.0000,1,   6,  10,   3,1.08094, -41.8390,1.10000,0.90000,1.10000,0.90000
 70612,'ESTARRE     ',  63.0000,1,   6,   4,   3,1.08923, -43.2097,1.10000,0.90000,1.10000,0.90000
 70613,'TUNES       ',  63.0000,1,   6,  13,   3,1.04689, -43.1275,1.10000,0.90000,1.10000,0.90000
 70614,'BATALHA     ',  63.0000,1,   6,   8,   3,1.08270, -42.2230,1.10000,0.90000,1.10000,0.90000
 70615,'F.FERRO     ',  63.0000,1,   6,  11,   3,1.05875, -41.4645,1.10000,0.90000,1.10000,0.90000
 70616,'R.MAIOR     ',  63.0000,1,   6,   9,   3,1.08387, -42.4141,1.10000,0.90000,1.10000,0.90000
 70618,'CARREGA     ',  63.0000,1,   6,  10,   3,1.08093, -42.2732,1.10000,0.90000,1.10000,0.90000
 70619,'SINES       ',  63.0000,1,   6,  12,   3,1.05169, -36.7632,1.10000,0.90000,1.10000,0.90000
 70620,'VALDIGE     ',  63.0000,1,   6,   2,   3,1.08560, -38.4235,1.10000,0.90000,1.10000,0.90000
 70622,'RIBADAV     ',  63.0000,1,   6,   1,   3,1.07904, -39.3240,1.10000,0.90000,1.10000,0.90000
 70623,'MOURISC     ',  63.0000,1,   6,   6,   3,1.08186, -43.0276,1.10000,0.90000,1.10000,0.90000
 70624,'CANELAS     ',  63.0000,1,   6,   4,   3,1.08843, -41.9838,1.10000,0.90000,1.10000,0.90000
 70625,'FANHOES     ',  63.0000,1,   6,  10,   3,1.07244, -40.9184,1.10000,0.90000,1.10000,0.90000
 70627,'GUIMARA     ',  63.0000,1,   6,   1,   3,1.07311, -39.0964,1.10000,0.90000,1.10000,0.90000
 70628,'MOGOFOR     ',  63.0000,1,   6,   6,   3,1.07946, -39.2393,1.10000,0.90000,1.10000,0.90000
 70630,'POMBAL      ',  63.0000,1,   6,   8,   3,1.07576, -38.6891,1.10000,0.90000,1.10000,0.90000
 70631,'V.FRIA      ',  63.0000,1,   6,   1,   3,1.07427, -39.6044,1.10000,0.90000,1.10000,0.90000
 70632,'CUSTOIA     ',  63.0000,1,   6,   4,   3,1.08161, -41.2407,1.10000,0.90000,1.10000,0.90000
 70634,'CARRICH     ',  63.0000,1,   6,  10,   3,1.07943, -42.7721,1.10000,0.90000,1.10000,0.90000
 70635,'TRAJOUC     ',  63.0000,1,   6,  10,   3,1.08409, -45.6035,1.10000,0.90000,1.10000,0.90000
 70637,'RECAREI     ',  63.0000,1,   6,   4,   3,1.08087, -39.7747,1.10000,0.90000,1.10000,0.90000
 70638,'S.RIOS      ',  63.0000,1,   6,  10,   3,1.07567, -43.5858,1.10000,0.90000,1.10000,0.90000
 70639,'EVORA       ',  63.0000,1,   6,  12,   3,1.04913, -41.6639,1.10000,0.90000,1.10000,0.90000
 70640,'TRAFARIA    ',  63.0000,1,   6,  11,   3,1.05964, -41.8865,1.10000,0.90000,1.10000,0.90000
 70643,'PRACANA     ',  63.0000,1,   6,  14,   3,1.07346, -46.2536,1.10000,0.90000,1.10000,0.90000
 70646,'TORRAO      ',  63.0000,1,   6,   4,   3,1.08007, -40.0588,1.10000,0.90000,1.10000,0.90000
 70648,'LAVOS       ',  63.0000,1,   6,   6,   3,1.07959, -37.0443,1.10000,0.90000,1.10000,0.90000
 70655,'CHAVES      ',  63.0000,1,   6,   1,   3,1.07885, -37.9022,1.10000,0.90000,1.10000,0.90000
 70656,'ESTOI       ',  63.0000,1,   6,  13,   3,1.05288, -44.5163,1.10000,0.90000,1.10000,0.90000
 70657,'FALAGUE     ',  63.0000,1,   6,  14,   3,1.07347, -46.2531,1.10000,0.90000,1.10000,0.90000
 70661,'OLEIROS     ',  63.0000,1,   6,   1,   3,1.07638, -40.3661,1.10000,0.90000,1.10000,0.90000
 70662,'FERRO       ',  63.0000,1,   6,   5,   3,1.07262, -43.1508,1.10000,0.90000,1.10000,0.90000
 70664,'MOGADOU     ',  63.0000,1,   6,   3,   3,1.11193, -36.7909,1.10000,0.90000,1.10000,0.90000
 70665,'SANTARE     ',  63.0000,1,   6,   9,   3,1.07219, -42.2334,1.10000,0.90000,1.10000,0.90000
 70666,'CHAFARI     ',  63.0000,1,   6,   5,   3,1.05448, -42.6006,1.10000,0.90000,1.10000,0.90000
 70668,'CARRAPAT    ',  63.0000,1,   6,   4,   3,1.08742, -39.0047,1.10000,0.90000,1.10000,0.90000
 70670,'PRELADA     ',  63.0000,1,   6,   4,   3,1.07576, -50.4733,1.10000,0.90000,1.10000,0.90000
 70676,'PARAIMO     ',  63.0000,1,   6,   6,   3,1.08241, -39.0369,1.10000,0.90000,1.10000,0.90000
 70677,'PORTIMAO    ',  63.0000,1,   6,  13,   3,1.04980, -41.9499,1.10000,0.90000,1.10000,0.90000
 70678,'BODIOSA     ',  63.0000,1,   6,   5,   3,1.08871, -40.8559,1.10000,0.90000,1.10000,0.90000
 70679,'PENELA      ',  63.0000,1,   6,   6,   3,1.07215, -41.5670,1.10000,0.90000,1.10000,0.90000
 70681,'C.BRANCO    ',  63.0000,1,   6,   7,   3,1.07532, -45.4581,1.10000,0.90000,1.10000,0.90000
 70683,'FRADES      ',  63.0000,1,   6,   1,   3,1.07431, -35.9576,1.10000,0.90000,1.10000,0.90000
 70684,'ALQUEVA     ',  63.0000,1,   6,  12,   3,1.03758, -38.9505,1.10000,0.90000,1.10000,0.90000
 70685,'M.CAVALE    ',  63.0000,1,   6,   3,   3,1.11337, -36.2556,1.10000,0.90000,1.10000,0.90000
 70686,'CARVOEIR    ',  63.0000,1,   6,  10,   3,1.07343, -42.2116,1.10000,0.90000,1.10000,0.90000
 70687,'V.P.AGUI    ',  63.0000,1,   6,   2,   3,1.08789, -37.7872,1.10000,0.90000,1.10000,0.90000
 70691,'TABUA       ',  63.0000,1,   6,   6,   3,1.07486, -42.2931,1.10000,0.90000,1.10000,0.90000
 70692,'ESTREMOZ    ',  63.0000,1,   6,  12,   3,1.07659, -48.8389,1.10000,0.90000,1.10000,0.90000
 71020,'V.NOVA      ', 150.0000,1,   6,   1,   2,1.11367, -36.4047,1.10000,0.90000,1.10000,0.90000
 71030,'SALAMON     ', 150.0000,1,   6,   1,   2,1.11329, -36.4740,1.10000,0.90000,1.10000,0.90000
 71040,'CABRIL      ', 150.0000,1,   6,   7,   2,1.10850, -39.5732,1.10000,0.90000,1.10000,0.90000
 71060,'BOUCA       ', 150.0000,1,   6,   7,   2,1.10424, -39.9168,1.10000,0.90000,1.10000,0.90000
 71100,'A.RABAG     ', 150.0000,1,   6,   1,   2,1.10919, -36.6384,1.10000,0.90000,1.10000,0.90000
 71110,'TABUACO     ', 150.0000,1,   6,   2,   2,1.09641, -34.6190,1.10000,0.90000,1.10000,0.90000
 71130,'V.FURNA     ', 150.0000,1,   6,   1,   2,1.11253, -37.0472,1.10000,0.90000,1.10000,0.90000
 71137,'PMFF4/SX    ', 150.0000,1,   6,  11,   2,1.08330, -39.8473,1.10000,0.90000,1.10000,0.90000
 71150,'FRATEL      ', 150.0000,1,   6,  14,   2,1.09327, -45.4224,1.10000,0.90000,1.10000,0.90000
 71270,'C.FRADES    ', 150.0000,1,   6,   1,   2,1.11417, -36.4467,1.10000,0.90000,1.10000,0.90000
 71277,'CDRA2/GR    ', 150.0000,1,   6,   1,   2,1.11320, -37.5304,1.10000,0.90000,1.10000,0.90000
 71557,'ARFRD       ', 150.0000,1,   6,   1,   2,1.10919, -36.6384,1.10000,0.90000,1.10000,0.90000
 71771,'C.SINES1    ', 150.0000,1,   6,  12,   2,1.08888, -32.6441,1.10000,0.90000,1.10000,0.90000
 71826,'FRDRA/PD    ', 150.0000,1,   6,   1,   2,1.11220, -37.3181,1.10000,0.90000,1.10000,0.90000
 71837,'CDRA/FRD    ', 150.0000,1,   6,   1,   2,1.11283, -37.0407,1.10000,0.90000,1.10000,0.90000
 71846,'PMMP/PE     ', 150.0000,1,   6,  11,   2,1.08534, -38.2626,1.10000,0.90000,1.10000,0.90000
 71847,'PMER/PE     ', 150.0000,1,   6,  11,   2,1.08601, -39.2210,1.10000,0.90000,1.10000,0.90000
 71867,'PAQG2       ', 150.0000,1,   6,  11,   2,1.08201, -39.6392,1.10000,0.90000,1.10000,0.90000
 71911,'FRCC1/RD    ', 150.0000,1,   6,   7,   2,1.09256, -45.0653,1.10000,0.90000,1.10000,0.90000
 71912,'FRCC2/RD    ', 150.0000,1,   6,   7,   2,1.09255, -45.0551,1.10000,0.90000,1.10000,0.90000
 71987,'VMED3/MA    ', 150.0000,1,   6,   4,   2,1.11576, -38.3698,1.10000,0.90000,1.10000,0.90000
 72011,'C.BODE1     ', 220.0000,1,   6,   7,   2,1.11791, -41.0297,1.10000,0.90000,1.10000,0.90000
 72012,'C.BODE2     ', 220.0000,1,   6,   7,   2,1.11786, -41.0207,1.10000,0.90000,1.10000,0.90000
 72013,'C.BODE3     ', 220.0000,1,   6,   7,   2,1.11791, -41.0297,1.10000,0.90000,1.10000,0.90000
 72027,'RRCT/MAA    ', 220.0000,1,   6,   4,   2,1.10694, -38.5464,1.10000,0.90000,1.10000,0.90000
 72080,'MIRANDA     ', 220.0000,1,   6,   3,   2,1.16657, -35.9672,1.10000,0.90000,1.10000,0.90000
 72090,'BEMPOST     ', 220.0000,1,   6,   3,   2,1.17042, -35.9812,1.10000,0.90000,1.10000,0.90000
 72127,'TGCN/EJ     ', 220.0000,1,   6,   4,   2,1.10972, -37.9209,1.10000,0.90000,1.10000,0.90000
 72160,'VALEIRA     ', 220.0000,1,   6,   2,   2,1.13114, -37.5530,1.10000,0.90000,1.10000,0.90000
 72170,'AGUIEIR     ', 220.0000,1,   6,   6,   2,1.11778, -41.0201,1.10000,0.90000,1.10000,0.90000
 72190,'C.POCIN     ', 220.0000,1,   6,   3,   2,1.14682, -38.0804,1.10000,0.90000,1.10000,0.90000
 72267,'BAVG1/AM    ', 220.0000,1,   6,   2,   2,1.12460, -38.1719,1.10000,0.90000,1.10000,0.90000
 72287,'PIPR/MR     ', 220.0000,1,   6,   6,   2,1.11850, -39.8498,1.10000,0.90000,1.10000,0.90000
 72307,'PRRM2/PB    ', 220.0000,1,   6,   8,   2,1.11649, -40.3039,1.10000,0.90000,1.10000,0.90000
 72346,'FNAM2/CH    ', 220.0000,1,   6,  10,   2,1.10641, -40.9352,1.10000,0.90000,1.10000,0.90000
 72347,'FNAM3/CH    ', 220.0000,1,   6,  10,   2,1.10620, -40.9007,1.10000,0.90000,1.10000,0.90000
 72357,'AMCH/TJ     ', 220.0000,1,   6,  10,   2,1.10533, -40.8534,1.10000,0.90000,1.10000,0.90000
 72596,'RRVM2/ED    ', 220.0000,1,   6,   4,   2,1.10848, -38.2649,1.10000,0.90000,1.10000,0.90000
 72597,'VGVM4/ED    ', 220.0000,1,   6,   4,   2,1.10827, -38.5555,1.10000,0.90000,1.10000,0.90000
 72627,'PNCFE/RA    ', 220.0000,1,   6,   5,   2,1.11463, -42.1228,1.10000,0.90000,1.10000,0.90000
 72671,'PSPV1       ', 220.0000,1,   6,  10,   2,1.10677, -40.7309,1.10000,0.90000,1.10000,0.90000
 72672,'PSPV2       ', 220.0000,1,   6,  10,   2,1.10676, -40.7227,1.10000,0.90000,1.10000,0.90000
 72673,'PSPV3       ', 220.0000,1,   6,  10,   2,1.10679, -40.7291,1.10000,0.90000,1.10000,0.90000
 72674,'PSPV4       ', 220.0000,1,   6,  10,   2,1.10676, -40.7228,1.10000,0.90000,1.10000,0.90000
 72751,'PSPH        ', 220.0000,1,   6,  10,   2,1.10551, -41.0114,1.10000,0.90000,1.10000,0.90000
 72790,'T.OUTEI     ', 220.0000,1,   6,   4,   2,1.10888, -37.4229,1.10000,0.90000,1.10000,0.90000
 72797,'RRCN/TG     ', 220.0000,1,   6,   4,   2,1.10910, -37.4776,1.10000,0.90000,1.10000,0.90000
 72801,'C.TER1      ', 220.0000,1,   6,  10,   2,1.10635, -40.0616,1.10000,0.90000,1.10000,0.90000
 72816,'PRTBA/MT    ', 220.0000,1,   6,   6,   2,1.11725, -41.0674,1.10000,0.90000,1.10000,0.90000
 72817,'AGPR2/MT    ', 220.0000,1,   6,   6,   2,1.11779, -41.0203,1.10000,0.90000,1.10000,0.90000
 72826,'CFVC2/GV    ', 220.0000,1,   6,   5,   2,1.12367, -41.1063,1.10000,0.90000,1.10000,0.90000
 72827,'CFVC1/GV    ', 220.0000,1,   6,   5,   2,1.12372, -41.1125,1.10000,0.90000,1.10000,0.90000
 72836,'CFFE2/SO    ', 220.0000,1,   6,   5,   2,1.12390, -41.1205,1.10000,0.90000,1.10000,0.90000
 72837,'CFFE1/SO    ', 220.0000,1,   6,   5,   2,1.12389, -41.1266,1.10000,0.90000,1.10000,0.90000
 72921,'FECC1/FL    ', 220.0000,1,   6,   7,   2,1.11087, -42.3104,1.10000,0.90000,1.10000,0.90000
 72922,'FECC2/FL    ', 220.0000,1,   6,   7,   2,1.11086, -42.3056,1.10000,0.90000,1.10000,0.90000
 72987,'PPTBA/FL    ', 220.0000,1,   6,   6,   2,1.11705, -41.0538,1.10000,0.90000,1.10000,0.90000
 72997,'VGAMM1/S    ', 220.0000,1,   6,   2,   2,1.12452, -38.1182,1.10000,0.90000,1.10000,0.90000
 74257,'PMSN3/FN    ', 400.0000,1,   6,  11,   2,1.10984, -36.7988,1.10000,0.90000,1.10000,0.90000
 74261,'C.AV1       ', 400.0000,1,   6,  12,   2,1.09775, -38.4565,1.10000,0.90000,1.10000,0.90000
 74761,'C.SETUB1    ', 400.0000,1,   6,  11,   2,1.11089, -37.5143,1.10000,0.90000,1.10000,0.90000
 74762,'C.SETUB2    ', 400.0000,1,   6,  11,   2,1.11090, -37.5143,1.10000,0.90000,1.10000,0.90000
 74763,'C.SETUB3    ', 400.0000,1,   6,  11,   2,1.11090, -37.5144,1.10000,0.90000,1.10000,0.90000
 74764,'C.SETUB4    ', 400.0000,1,   6,  11,   2,1.11088, -37.5143,1.10000,0.90000,1.10000,0.90000
 74772,'C.SINES2    ', 400.0000,1,   6,  12,   2,1.09976, -34.5569,1.10000,0.90000,1.10000,0.90000
 74773,'C.SINES3    ', 400.0000,1,   6,  12,   2,1.09987, -34.5314,1.10000,0.90000,1.10000,0.90000
 74774,'C.SINES4    ', 400.0000,1,   6,  12,   2,1.09988, -34.5331,1.10000,0.90000,1.10000,0.90000
 74781,'C.PG1       ', 400.0000,1,   6,  14,   2,1.11422, -37.7536,1.10000,0.90000,1.10000,0.90000
 74782,'C.PG2       ', 400.0000,1,   6,  14,   2,1.11422, -37.7536,1.10000,0.90000,1.10000,0.90000
 74802,'C.TER2      ', 400.0000,1,   6,  10,   2,1.10675, -37.6118,1.10000,0.90000,1.10000,0.90000
 74803,'C.TER3      ', 400.0000,1,   6,  10,   2,1.10681, -37.6224,1.10000,0.90000,1.10000,0.90000
 74811,'C.LR1       ', 400.0000,1,   6,   6,   2,1.10823, -35.2525,1.10000,0.90000,1.10000,0.90000
 74812,'C.LR2       ', 400.0000,1,   6,   6,   2,1.10566, -34.8701,1.10000,0.90000,1.10000,0.90000
 75102,'MAIA        ', 150.0000,1,   6,   4,   2,1.11576, -38.3699,1.10000,0.90000,1.10000,0.90000
 75103,'N.CORVO     ', 150.0000,1,   6,  12,   2,1.06614, -39.4103,1.10000,0.90000,1.10000,0.90000
 75104,'Q.ANJO      ', 150.0000,1,   6,  11,   2,1.08329, -39.5799,1.10000,0.90000,1.10000,0.90000
 75107,'PEGOES      ', 150.0000,1,   6,  11,   2,1.08593, -39.2380,1.10000,0.90000,1.10000,0.90000
 75109,'FOGUETEI    ', 150.0000,1,   6,  11,   2,1.08284, -40.0322,1.10000,0.90000,1.10000,0.90000
 75110,'Q.GRANDE    ', 150.0000,1,   6,  11,   2,1.08201, -39.6646,1.10000,0.90000,1.10000,0.90000
 75115,'RODAO       ', 150.0000,1,   6,   7,   2,1.09255, -45.0686,1.10000,0.90000,1.10000,0.90000
 75116,'LUZIANES    ', 150.0000,1,   6,  12,   2,1.07287, -39.0435,1.10000,0.90000,1.10000,0.90000
 75117,'LUSOSIDE    ', 150.0000,1,   6,  11,   2,1.08320, -39.8710,1.10000,0.90000,1.10000,0.90000
 75157,'COG-CSNC    ', 150.0000,2,   6,  12,   8,1.08799, -34.5689,1.10000,0.90000,1.10000,0.90000
 75202,'MAIA        ', 220.0000,1,   6,   4,   2,1.10651, -38.6073,1.10000,0.90000,1.10000,0.90000
 75205,'GOUVEIA     ', 220.0000,1,   6,   5,   2,1.12373, -41.1169,1.10000,0.90000,1.10000,0.90000
 75206,'MORTAGUA    ', 220.0000,1,   6,   6,   2,1.11781, -41.0251,1.10000,0.90000,1.10000,0.90000
 75208,'SOBRAL      ', 220.0000,1,   6,   5,   2,1.12389, -41.1269,1.10000,0.90000,1.10000,0.90000
 75212,'SEIXAL      ', 220.0000,1,   6,  11,   2,1.09181, -41.9962,1.10000,0.90000,1.10000,0.90000
 75218,'FATELA      ', 220.0000,1,   6,   7,   2,1.11086, -42.3112,1.10000,0.90000,1.10000,0.90000
 76087,'XFVM7       ',  63.0000,1,   6,   4,   2,1.09881, -47.5729,1.10000,0.90000,1.10000,0.90000
 76088,'XFVM8       ',  63.0000,1,   6,   4,   2,1.09881, -47.5729,1.10000,0.90000,1.10000,0.90000
 76111,'XFAM1       ',  63.0000,1,   6,  10,   3,1.08356, -40.9057,1.10000,0.90000,1.10000,0.90000
 76112,'XFAM2       ',  63.0000,1,   6,  10,   3,1.08038, -40.9218,1.10000,0.90000,1.10000,0.90000
 76113,'XFAM3       ',  63.0000,1,   6,  10,   3,1.08037, -40.9173,1.10000,0.90000,1.10000,0.90000
 76180,'RAIVA       ',  63.0000,1,   6,   6,   3,1.07514, -43.0682,1.10000,0.90000,1.10000,0.90000
 76181,'CARREGA1    ',  63.0000,1,   6,  10,   3,1.08318, -41.6173,1.10000,0.90000,1.10000,0.90000
 76182,'CARREGA2    ',  63.0000,1,   6,  10,   3,1.08331, -41.6232,1.10000,0.90000,1.10000,0.90000
 76183,'CARREGA3    ',  63.0000,1,   6,  10,   3,1.08351, -41.6081,1.10000,0.90000,1.10000,0.90000
 76200,'CRESTUM     ',  63.0000,1,   6,   4,   3,1.10365, -41.9390,1.10000,0.90000,1.10000,0.90000
 76223,'XFRA3       ',  63.0000,1,   6,   1,   3,1.09121, -37.0773,1.10000,0.90000,1.10000,0.90000
 76224,'XFRA4       ',  63.0000,1,   6,   1,   3,1.09121, -37.0771,1.10000,0.90000,1.10000,0.90000
 76225,'XFRA5       ',  63.0000,1,   6,   1,   3,1.06801, -38.6073,1.10000,0.90000,1.10000,0.90000
 76226,'XFRA6       ',  63.0000,1,   6,   1,   3,1.06847, -38.6106,1.10000,0.90000,1.10000,0.90000
 76227,'XFRA7       ',  63.0000,1,   6,   1,   3,1.07454, -38.9426,1.10000,0.90000,1.10000,0.90000
 76230,'TOUVEDO     ',  63.0000,1,   6,   1,   3,1.05799, -35.1061,1.10000,0.90000,1.10000,0.90000
 76241,'XFCN1       ',  63.0000,1,   6,   4,   3,1.08404, -40.6192,1.10000,0.90000,1.10000,0.90000
 76242,'XFCN2       ',  63.0000,1,   6,   4,   3,1.08385, -40.6100,1.10000,0.90000,1.10000,0.90000
 76243,'XFCN3       ',  63.0000,1,   6,   4,   3,1.08368, -40.6267,1.10000,0.90000,1.10000,0.90000
 76244,'XFCN4       ',  63.0000,1,   6,   4,   3,1.08331, -40.6208,1.10000,0.90000,1.10000,0.90000
 76250,'CALDEIR     ',  63.0000,1,   6,   5,   3,1.04722, -42.0788,1.10000,0.90000,1.10000,0.90000
 76280,'R.DIO       ',  63.0000,1,   6,   6,   2,1.08195, -43.0293,1.10000,0.90000,1.10000,0.90000
 76712,'T.OUTEI     ',  63.0000,1,   6,   4,   3,1.10305, -42.4561,1.10000,0.90000,1.10000,0.90000
 76992,'BELVER2     ',  63.0000,1,   6,   7,   3,1.05457, -39.1458,1.10000,0.90000,1.10000,0.90000
 77016,'HID-ZR      ',  63.0000,1,   6,   7,   6,1.05411, -42.4584,1.10000,0.90000,1.10000,0.90000
 77018,'COG-ZR      ',  63.0000,2,   6,   7,   8,1.05412, -42.4564,1.10000,0.90000,1.10000,0.90000
 77019,'OUT-ZR      ',  63.0000,2,   6,   7,   9,1.05412, -42.4566,1.10000,0.90000,1.10000,0.90000
 77028,'COG-SV      ',  63.0000,2,   6,  10,   8,1.07448, -42.9234,1.10000,0.90000,1.10000,0.90000
 77038,'COG-ED      ',  63.0000,2,   6,   4,   8,1.08778, -40.9524,1.10000,0.90000,1.10000,0.90000
 77048,'COG-SB      ',  63.0000,2,   6,  11,   8,1.06418, -40.5838,1.10000,0.90000,1.10000,0.90000
 77049,'OUT-SB      ',  63.0000,1,   6,  11,   9,1.06415, -40.5968,1.10000,0.90000,1.10000,0.90000
 77056,'HID-FA      ',  63.0000,1,   6,  12,   6,1.04548, -38.9377,1.10000,0.90000,1.10000,0.90000
 77066,'HID-PR      ',  63.0000,2,   6,   6,   6,1.07544, -43.0700,1.10000,0.90000,1.10000,0.90000
 77068,'COG-PR      ',  63.0000,2,   6,   6,   8,1.07544, -43.0699,1.10000,0.90000,1.10000,0.90000
 77069,'OUT-PR      ',  63.0000,2,   6,   6,   9,1.07544, -43.0691,1.10000,0.90000,1.10000,0.90000
 77076,'HID-PN      ',  63.0000,2,   6,   3,   6,1.09307, -40.1343,1.10000,0.90000,1.10000,0.90000
 77088,'COG-VM      ',  63.0000,2,   6,   4,   8,1.09882, -47.5714,1.10000,0.90000,1.10000,0.90000
 77089,'OUT-VM      ',  63.0000,2,   6,   4,   9,1.09882, -47.5708,1.10000,0.90000,1.10000,0.90000
 77098,'COG-PA      ',  63.0000,2,   6,  14,   8,1.05792, -40.3341,1.10000,0.90000,1.10000,0.90000
 77106,'HID-VC      ',  63.0000,2,   6,   5,   6,1.08257, -42.6271,1.10000,0.90000,1.10000,0.90000
 77108,'COG-VC      ',  63.0000,2,   6,   5,   8,1.08256, -42.6281,1.10000,0.90000,1.10000,0.90000
 77126,'HID-EJ      ',  63.0000,2,   6,   4,   6,1.08923, -43.2089,1.10000,0.90000,1.10000,0.90000
 77128,'COG-EJ      ',  63.0000,2,   6,   4,   8,1.08924, -43.2087,1.10000,0.90000,1.10000,0.90000
 77148,'COG-BL      ',  63.0000,2,   6,   6,   8,1.08270, -42.2229,1.10000,0.90000,1.10000,0.90000
 77149,'OUT-BL      ',  63.0000,2,   6,   6,   9,1.08270, -42.2229,1.10000,0.90000,1.10000,0.90000
 77158,'COG-FF      ',  63.0000,1,   6,  11,   8,1.05875, -41.4645,1.10000,0.90000,1.10000,0.90000
 77188,'COG-CG      ',  63.0000,1,   6,  10,   8,1.08093, -42.2732,1.10000,0.90000,1.10000,0.90000
 77198,'COG-SN      ',  63.0000,2,   6,  12,   8,1.05170, -36.7632,1.10000,0.90000,1.10000,0.90000
 77206,'HID-VG      ',  63.0000,2,   6,   2,   6,1.08561, -38.4215,1.10000,0.90000,1.10000,0.90000
 77226,'HID-RA      ',  63.0000,2,   6,   1,   6,1.07905, -39.3220,1.10000,0.90000,1.10000,0.90000
 77228,'COG-RA      ',  63.0000,2,   6,   1,   8,1.07907, -39.3174,1.10000,0.90000,1.10000,0.90000
 77236,'HID-MC      ',  63.0000,2,   6,   6,   6,1.08186, -43.0271,1.10000,0.90000,1.10000,0.90000