      1 'GENROE'  1       5         0.07      0.9       0.09      4.28      0.0000    1.84      1.75      0.41      0.6       0.2       0.12     0.11     0.39       /
	  1 'ESST1A'  1       1       2       0.1       0.3      -0.3     2.0     10     0.08     0.083     300     0.1     7     -7     5.2     -5.2     0.38     1     1     1     0 /
	  1 'PSS2A' 1       1       1       3       1       5       1       0.0       5.0       0.0       5.0       5.0       5.0       0.758       1.0       0.12       0.1       2.0       0.47       0.07       0.47       0.07       0.1       -0.1       /
      3 'GENCLS' 1     0.0000       0.0000    /
