      1 'GENROU'  1       5         0.05      0.7       0.1      4.00      0.0000    1.41      1.35      0.3      0.6       0.2       0.12     0.1     0.5       /
	  1 'ESST4B'  1       0.3       2.97      2.97     1.0     -0.87     0.01     1.0     0.2     1.0     -0.87     0.1     6.73     0.1     8.41     0.1     0.0     0.0  /
      3 'GENCLS' 1     0.0000       0.0000    /


