      1 'GENSAL'  1       6.7       0.028       0.0358       4.41      0.0    1.22      0.76      0.297     0.2     0.12     0.186     0.802       /
	  1 'SCRX'    1       0.1       10.0       100.0     0.05      0.0      5.0     0.0       0.0  /
	  1 'IEESGO'    1     0.01       0.0        0.15     0.3      8.0      0.4      0.1      0.7       0.43       1.0       
	  0.0  /
      3 'GENCLS' 1     0.0000       0.0000    /