0,   100.00, 33, 0, 1, 60.00     / PSS(R)E-33.4    MON, FEB 01 2021  21:52
2017 SERIES, ERAG/MMWG BASE CASE LIBRARY. CEII DATA
2018 SUMMER PEAK LOAD CASE, FINAL
107430,'SOUTH HERO  ', 115.0000,1, 101, 107, 101,1.02045, -20.3785,1.10000,0.90000,1.10000,0.90000
107440,'NE_PV20_NY  ', 115.0000,1, 101, 107, 101,1.01888, -20.1630,1.10000,0.90000,1.10000,0.90000
107750,'BLISSVIL PAR', 115.0000,1, 101, 107, 101,1.01609, -66.8245,1.10000,0.90000,1.10000,0.90000
107751,'NE_K7_NY    ', 115.0000,1, 101, 107, 101,1.01520, -66.8524,1.10000,0.90000,1.10000,0.90000
107930,'BENNINGTON  ', 115.0000,1, 101, 107, 101,1.01937, -53.9813,1.10000,0.90000,1.10000,0.90000
107931,'NE_K6_NY    ', 115.0000,1, 101, 107, 101,1.00987, -54.2861,1.10000,0.90000,1.10000,0.90000
108894,'SWANTON GT  ',  13.8000,2, 101, 107, 101,1.00000, -32.8797,1.10000,0.90000,1.10000,0.90000
109550,'BELLOWS FALS',   6.9000,2, 101, 108, 101,1.00000, -51.5265,1.10000,0.90000,1.10000,0.90000
110984,'MATEP_CC    ',  13.8000,2, 101, 110, 101,1.01042, -66.5776,1.10000,0.90000,1.10000,0.90000
111126,'KENDALL CT  ',  18.0000,2, 101, 110, 101,1.00000, -52.6267,1.10000,0.90000,1.10000,0.90000
113001,'BEAR SWAMP  ', 230.0000,1, 101, 111, 101,1.04180, -45.8449,1.10000,0.90000,1.10000,0.90000
113096,'BEARSWAMP 1 ',  13.8000,2, 101, 111, 101,1.00000, -39.4150,1.10000,0.90000,1.10000,0.90000
113102,'FIFE BROOK  ',  13.8000,2, 101, 111, 101,1.00000, -42.1154,1.10000,0.90000,1.10000,0.90000
113405,'MILLENIUM CT',  16.0000,2, 101, 111, 101,1.00000, -47.1499,1.10000,0.90000,1.10000,0.90000
115005,'NE_E205W_NY ', 230.0000,1, 101, 111, 101,1.01728, -49.6713,1.10000,0.90000,1.10000,0.90000
115742,'DIGHTON PWR ',  22.0000,2, 101, 111, 101,1.00000, -51.2228,1.10000,0.90000,1.10000,0.90000
116023,'BERKSHIRE   ', 345.0000,1, 101, 112, 101,1.03927, -50.5857,1.10000,0.90000,1.10000,0.90000
116034,'NE_393_NY   ', 345.0000,1, 101, 112, 101,1.02864, -49.5757,1.10000,0.90000,1.10000,0.90000
116579,'CABOT HYDRO ',  13.8000,2, 101, 112, 101,1.00000, -45.8678,1.10000,0.90000,1.10000,0.90000
116618,'ALTRESCO_C1 ',  13.8000,2, 101, 112, 101,1.00000, -41.4991,1.10000,0.90000,1.10000,0.90000
119259,'LONG MTN    ', 345.0000,1, 101, 116, 101,1.03559, -66.4590,1.10000,0.90000,1.10000,0.90000
119272,'NE_398_NY   ', 345.0000,1, 101, 116, 101,1.02722, -66.3447,1.10000,0.90000,1.10000,0.90000
120380,'SALISBURY   ',  69.0000,1, 101, 116, 101,1.00769, -78.8989,1.10000,0.90000,1.10000,0.90000
120389,'NE_690_NY   ',  69.0000,1, 101, 116, 101,1.00966, -78.7062,1.10000,0.90000,1.10000,0.90000
121406,'NORWALK HRBR', 138.0000,1, 101, 116, 101,1.04099, -73.1569,1.10000,0.90000,1.10000,0.90000
121408,'NE_601_NY   ', 138.0000,1, 101, 116, 101,1.04325, -73.1996,1.10000,0.90000,1.10000,0.90000
121409,'NE_602_NY   ', 138.0000,1, 101, 116, 101,1.04325, -73.1996,1.10000,0.90000,1.10000,0.90000
121410,'NE_603_NY   ', 138.0000,1, 101, 116, 101,1.04324, -73.1996,1.10000,0.90000,1.10000,0.90000
121513,'LAKE ROAD_C1',  21.0000,2, 101, 116, 101,1.00000, -47.4045,1.10000,0.90000,1.10000,0.90000
122933,'COSCOB_GEN  ',  13.8000,2, 101, 116, 101,1.00000, -70.5393,1.10000,0.90000,1.10000,0.90000
125000,'HURLEY 3    ', 345.0000,1, 102, 154, 141,0.99986, -58.8797,1.10000,0.90000,1.10000,0.90000
125001,'ROCK TAV    ', 345.0000,1, 102, 154, 141,1.00968, -65.2431,1.10000,0.90000,1.10000,0.90000
125002,'ROSETON     ', 345.0000,1, 102, 154, 141,1.00191, -63.0247,1.10000,0.90000,1.10000,0.90000
125003,'SDU-HURLEY  ', 345.0000,1, 102, 154, 141,1.00274, -60.0936,1.10000,0.90000,1.10000,0.90000
125018,'SUGARLF     ', 115.0000,1, 102, 154, 141,1.00049, -67.0749,1.10000,0.90000,1.10000,0.90000
125019,'CHAD.LAK    ', 115.0000,1, 102, 154, 141,1.00937, -67.3080,1.10000,0.90000,1.10000,0.90000
125022,'E FISH I    ', 115.0000,1, 102, 154, 141,0.99722, -68.5290,1.10000,0.90000,1.10000,0.90000
125024,'E.WALD 1    ', 115.0000,2, 102, 154, 141,1.00229, -67.6418,1.10000,0.90000,1.10000,0.90000
125026,'FISHKILL    ', 115.0000,1, 102, 154, 141,0.99647, -68.7900,1.10000,0.90000,1.10000,0.90000
125030,'HURLEY 1    ', 115.0000,1, 102, 154, 141,0.99781, -65.0377,1.10000,0.90000,1.10000,0.90000
125033,'KNAPPS 1    ', 115.0000,2, 102, 154, 141,0.99655, -68.6096,1.10000,0.90000,1.10000,0.90000
125041,'N.CHELSE    ', 115.0000,1, 102, 154, 141,1.01357, -66.9976,1.10000,0.90000,1.10000,0.90000
125043,'PL.VAL 1    ', 115.0000,1, 102, 154, 141,0.99383, -67.5588,1.10000,0.90000,1.10000,0.90000
125044,'REYNOLDS    ', 115.0000,1, 102, 154, 141,1.00172, -67.8711,1.10000,0.90000,1.10000,0.90000
125046,'ROCK TV1    ', 115.0000,1, 102, 154, 141,1.00019, -67.0737,1.10000,0.90000,1.10000,0.90000
125080,'DANSK-N     ', 115.0000,1, 102, 154, 141,1.01773, -66.5521,1.10000,0.90000,1.10000,0.90000
125093,'COXSACK     ',  69.0000,2, 102, 154, 141,1.00000, -68.3702,1.10000,0.90000,1.10000,0.90000
125127,'SMITHFLD    ',  69.0000,1, 102, 154, 141,1.01706, -78.1042,1.10000,0.90000,1.10000,0.90000
125190,'ROSE GN1    ',  24.0000,2, 102, 154, 141,1.00000, -49.7505,1.10000,0.90000,1.10000,0.90000
125192,'ROSE GN2    ',  24.0000,2, 102, 154, 141,1.00000, -55.1324,1.10000,0.90000,1.10000,0.90000
125193,'DANSK G4    ',  16.1000,2, 102, 154, 141,1.00000, -61.7804,1.10000,0.90000,1.10000,0.90000
125195,'DANSK G2    ',  13.8000,2, 102, 154, 141,1.00000, -62.3533,1.10000,0.90000,1.10000,0.90000
126250,'RAMAPO 5    ', 500.0000,1, 102, 176, 142,1.02635, -85.4356,1.10000,0.90000,1.10000,0.90000
126251,'ER G6       ',  13.2000,2, 102, 159, 142,1.00000, -84.4373,1.10000,0.90000,1.10000,0.90000
126252,'ER G7       ',  13.2000,2, 102, 159, 142,0.98982, -82.5191,1.10000,0.90000,1.10000,0.90000
126257,'GOWGT1A     ',  13.8000,2, 102, 159, 142,1.00000, -83.9666,1.10000,0.90000,1.10000,0.90000
126260,'BOWLINE1    ', 345.0000,1, 102, 176, 142,1.01526, -69.7327,1.10000,0.90000,1.10000,0.90000
126261,'BOWLINE2    ', 345.0000,1, 102, 176, 142,1.01498, -69.8655,1.10000,0.90000,1.10000,0.90000
126262,'BUCHANAN N  ', 345.0000,1, 102, 167, 142,1.01163, -70.9004,1.10000,0.90000,1.10000,0.90000
126263,'BUCHANAN S  ', 345.0000,1, 102, 167, 142,1.00955, -71.8330,1.10000,0.90000,1.10000,0.90000
126265,'COGNTECH    ', 345.0000,1, 102, 159, 142,0.99953, -83.1482,1.10000,0.90000,1.10000,0.90000
126266,'DUNWOODIE   ', 345.0000,1, 102, 169, 142,1.00364, -78.3228,1.10000,0.90000,1.10000,0.90000
126267,'E VIEW 2N   ', 345.0000,1, 102, 169, 142,1.00239, -76.1145,1.10000,0.90000,1.10000,0.90000
126268,'E VIEW 1N   ', 345.0000,1, 102, 169, 142,1.00141, -76.3100,1.10000,0.90000,1.10000,0.90000
126269,'E VIEW 2S   ', 345.0000,1, 102, 169, 142,1.00131, -76.3203,1.10000,0.90000,1.10000,0.90000
126270,'E VIEW 1S   ', 345.0000,1, 102, 169, 142,1.00221, -76.3170,1.10000,0.90000,1.10000,0.90000
126271,'GOWGT2A     ',  13.8000,2, 102, 159, 142,1.00000, -83.5617,1.10000,0.90000,1.10000,0.90000
126272,'E13ST 45    ', 345.0000,1, 102, 159, 142,1.01979, -89.6267,1.10000,0.90000,1.10000,0.90000
126273,'E13ST 46    ', 345.0000,1, 102, 159, 142,1.01978, -89.6255,1.10000,0.90000,1.10000,0.90000
126274,'E13ST 47    ', 345.0000,1, 102, 159, 142,1.01949, -89.5999,1.10000,0.90000,1.10000,0.90000
126275,'E13ST 48    ', 345.0000,1, 102, 159, 142,1.01923, -89.6155,1.10000,0.90000,1.10000,0.90000
126277,'FARRAGUT    ', 345.0000,1, 102, 159, 142,1.01935, -89.6082,1.10000,0.90000,1.10000,0.90000
126278,'B3402 PAR1  ', 345.0000,1, 102, 159, 142,1.03591, -99.1954,1.10000,0.90000,1.10000,0.90000
126279,'C3403 PAR2  ', 345.0000,1, 102, 159, 142,1.03676, -99.2069,1.10000,0.90000,1.10000,0.90000
126280,'FARRAGUT TX9', 345.0000,1, 102, 159, 142,1.01937, -89.6080,1.10000,0.90000,1.10000,0.90000
126281,'E FISHKILL  ', 345.0000,1, 102, 167, 142,1.00247, -66.5608,1.10000,0.90000,1.10000,0.90000
126282,'FRESH KILLS ', 345.0000,1, 102, 159, 142,0.99916, -83.2757,1.10000,0.90000,1.10000,0.90000
126283,'GOTHLS      ', 345.0000,1, 102, 159, 142,0.99949, -83.2030,1.10000,0.90000,1.10000,0.90000
126284,'GOTHLS R    ', 345.0000,1, 102, 159, 142,1.00749, -96.4961,1.10000,0.90000,1.10000,0.90000
126285,'GOW R4      ', 345.0000,1, 102, 159, 142,0.99814, -83.6317,1.10000,0.90000,1.10000,0.90000
126286,'GOW R16     ', 345.0000,1, 102, 159, 142,0.99814, -83.6317,1.10000,0.90000,1.10000,0.90000
126287,'GOWANUS     ', 345.0000,1, 102, 159, 142,0.99814, -83.6317,1.10000,0.90000,1.10000,0.90000
126288,'IP2 345     ', 345.0000,1, 102, 167, 142,1.01210, -70.7889,1.10000,0.90000,1.10000,0.90000
126290,'LADENTWN    ', 345.0000,1, 102, 176, 142,1.01381, -70.1449,1.10000,0.90000,1.10000,0.90000
126291,'MILLWOOD    ', 345.0000,1, 102, 167, 142,1.00364, -73.9801,1.10000,0.90000,1.10000,0.90000
126292,'PL VILLE    ', 345.0000,1, 102, 169, 142,1.00003, -74.3680,1.10000,0.90000,1.10000,0.90000
126293,'PL VILLW    ', 345.0000,1, 102, 169, 142,0.99894, -74.5401,1.10000,0.90000,1.10000,0.90000
126294,'PLTVLLEY    ', 345.0000,1, 102, 176, 142,0.99973, -65.9666,1.10000,0.90000,1.10000,0.90000
126295,'RAINEY      ', 345.0000,1, 102, 159, 142,1.01878, -89.3602,1.10000,0.90000,1.10000,0.90000
126296,'RAM PAR     ', 345.0000,1, 102, 176, 142,1.02484, -86.5442,1.10000,0.90000,1.10000,0.90000
126297,'RAMAPO      ', 345.0000,1, 102, 176, 142,1.01345, -69.9227,1.10000,0.90000,1.10000,0.90000
126298,'SPRAINBROOK ', 345.0000,1, 102, 169, 142,1.00408, -78.2486,1.10000,0.90000,1.10000,0.90000
126299,'REACBUS     ', 345.0000,1, 102, 169, 142,1.00408, -78.2486,1.10000,0.90000,1.10000,0.90000
126300,'NARBARG1    ', 138.0000,1, 102, 159, 142,0.97041, -92.0019,1.10000,0.90000,1.10000,0.90000
126301,'TREMONT     ', 345.0000,1, 102, 159, 142,1.00279, -78.7159,1.10000,0.90000,1.10000,0.90000
126302,'NARRGT1A    ',  13.8000,2, 102, 159, 142,1.00000, -83.1814,1.10000,0.90000,1.10000,0.90000
126304,'W 49 ST     ', 345.0000,1, 102, 159, 142,1.02181, -89.5546,1.10000,0.90000,1.10000,0.90000
126305,'WOOD A      ', 345.0000,1, 102, 167, 142,0.99757, -70.8156,1.10000,0.90000,1.10000,0.90000
126306,'WOOD B      ', 345.0000,1, 102, 167, 142,0.99976, -71.8012,1.10000,0.90000,1.10000,0.90000
126307,'NARGARG2    ', 138.0000,1, 102, 159, 142,0.97034, -92.0141,1.10000,0.90000,1.10000,0.90000
126310,'ASTGT2      ', 138.0000,1, 102, 159, 142,0.97726, -83.4143,1.10000,0.90000,1.10000,0.90000
126311,'ASTEGT2A    ',  13.8000,2, 102, 159, 142,1.00000, -77.6242,1.10000,0.90000,1.10000,0.90000
126313,'BUCH138     ', 138.0000,1, 102, 167, 142,0.98822, -75.9391,1.10000,0.90000,1.10000,0.90000
126314,'PEEKDUM1    ', 138.0000,1, 102, 167, 142,0.98946, -75.9677,1.10000,0.90000,1.10000,0.90000
126315,'YORK TR1    ', 138.0000,1, 102, 159, 142,0.98805, -85.8059,1.10000,0.90000,1.10000,0.90000
126316,'YORK TR2    ', 138.0000,1, 102, 159, 142,0.98805, -85.8109,1.10000,0.90000,1.10000,0.90000
126321,'GOETHALS    ', 230.0000,1, 102, 159, 142,1.01832, -95.6772,1.10000,0.90000,1.10000,0.90000
126328,'GOWGT2B     ',  13.8000,2, 102, 159, 142,1.00000, -83.4688,1.10000,0.90000,1.10000,0.90000
126329,'GOWGT4B     ',  13.8000,2, 102, 159, 142,1.00000, -84.1665,1.10000,0.90000,1.10000,0.90000
126340,'KEYSPG-1    ',  18.0000,2, 102, 159, 142,1.00000, -85.2223,1.10000,0.90000,1.10000,0.90000
126342,'W74 TAP     ', 345.0000,1, 102, 169, 142,1.00364, -78.3228,1.10000,0.90000,1.10000,0.90000
126343,'W73 TAP     ', 345.0000,1, 102, 169, 142,1.00364, -78.3228,1.10000,0.90000,1.10000,0.90000
126353,'ASTORIA W-N ', 138.0000,1, 102, 159, 142,0.97705, -87.3885,1.10000,0.90000,1.10000,0.90000
126359,'PEEK13.8    ',  13.8000,2, 102, 167, 142,1.00000, -76.0877,1.10000,0.90000,1.10000,0.90000
126363,'CORONA-S    ', 138.0000,1, 102, 159, 142,0.97404, -83.9419,1.10000,0.90000,1.10000,0.90000
126368,'DUN NO      ', 138.0000,1, 102, 169, 142,0.99201, -83.0125,1.10000,0.90000,1.10000,0.90000
126369,'DUN NO S6   ', 138.0000,1, 102, 169, 142,0.99260, -82.4489,1.10000,0.90000,1.10000,0.90000
126372,'DUN SO      ', 138.0000,1, 102, 169, 142,0.98807, -82.9577,1.10000,0.90000,1.10000,0.90000
126373,'DUN SO N7   ', 138.0000,1, 102, 169, 142,0.99001, -82.3916,1.10000,0.90000,1.10000,0.90000
126378,'EASTVIEW    ', 138.0000,1, 102, 169, 142,0.96541, -79.9381,1.10000,0.90000,1.10000,0.90000
126379,'AST 2       ',  13.8000,2, 102, 159, 142,1.00000, -79.4779,1.10000,0.90000,1.10000,0.90000
126384,'E13 ST      ', 138.0000,1, 102, 159, 142,0.98970, -93.2548,1.10000,0.90000,1.10000,0.90000
126385,'E179 ST W   ', 138.0000,1, 102, 159, 142,0.97390, -82.1982,1.10000,0.90000,1.10000,0.90000
126398,'FGT_Y9      ', 138.0000,1, 102, 159, 142,0.99945, -91.3146,1.10000,0.90000,1.10000,0.90000
126416,'FOXHLLS1    ', 138.0000,1, 102, 159, 142,0.96946, -92.0768,1.10000,0.90000,1.10000,0.90000
126417,'FOXHLLS2    ', 138.0000,1, 102, 159, 142,0.97123, -92.0026,1.10000,0.90000,1.10000,0.90000
126418,'FRESH KILLS ', 138.0000,1, 102, 159, 142,0.97578, -91.2829,1.10000,0.90000,1.10000,0.90000
126419,'FRKILLR2    ', 138.0000,1, 102, 159, 142,0.98776, -88.0958,1.10000,0.90000,1.10000,0.90000
126420,'FRKILLSR    ', 138.0000,1, 102, 159, 142,0.98953, -88.2790,1.10000,0.90000,1.10000,0.90000
126427,'GOWNUST2    ', 138.0000,1, 102, 159, 142,0.99257, -86.6207,1.10000,0.90000,1.10000,0.90000
126428,'GOWNUSR14   ', 138.0000,1, 102, 159, 142,0.96903, -92.2416,1.10000,0.90000,1.10000,0.90000
126429,'GOWNUST14   ', 138.0000,1, 102, 159, 142,0.99321, -86.5463,1.10000,0.90000,1.10000,0.90000
126437,'FGT_X9      ', 138.0000,1, 102, 159, 142,0.98959, -85.2445,1.10000,0.90000,1.10000,0.90000
126442,'HG  1       ', 138.0000,1, 102, 159, 142,0.97606, -82.0969,1.10000,0.90000,1.10000,0.90000
126445,'HG  4       ', 138.0000,1, 102, 159, 142,0.97690, -82.1045,1.10000,0.90000,1.10000,0.90000
126447,'HG  6       ', 138.0000,1, 102, 159, 142,0.97604, -87.4412,1.10000,0.90000,1.10000,0.90000
126454,'KENTTAP     ', 138.0000,1, 102, 159, 142,0.97220, -92.0859,1.10000,0.90000,1.10000,0.90000
126455,'JAMAICA     ', 138.0000,1, 102, 159, 142,0.98459, -85.5212,1.10000,0.90000,1.10000,0.90000
126456,'JFK 138     ', 138.0000,1, 102, 159, 142,0.98851, -85.0695,1.10000,0.90000,1.10000,0.90000
126462,'PARK TR1    ', 138.0000,1, 102, 159, 142,0.97580, -84.7901,1.10000,0.90000,1.10000,0.90000
126463,'PARK TR2    ', 138.0000,1, 102, 159, 142,0.97556, -84.7933,1.10000,0.90000,1.10000,0.90000
126466,'SECT 11     ', 138.0000,1, 102, 159, 142,0.97319, -82.1677,1.10000,0.90000,1.10000,0.90000
126467,'SECT 12     ', 138.0000,1, 102, 159, 142,0.97282, -82.2114,1.10000,0.90000,1.10000,0.90000
126468,'ERGT1       ',  18.0000,2, 102, 159, 142,0.99914, -87.3782,1.10000,0.90000,1.10000,0.90000
126469,'ERGT2       ',  18.0000,2, 102, 159, 142,1.00000, -83.2756,1.10000,0.90000,1.10000,0.90000
126475,'QUENBRDG    ', 138.0000,1, 102, 159, 142,0.97552, -87.5850,1.10000,0.90000,1.10000,0.90000
126476,'RAINEY2E    ', 138.0000,1, 102, 159, 142,0.99660, -93.3580,1.10000,0.90000,1.10000,0.90000
126478,'RAINEY7E    ', 138.0000,1, 102, 159, 142,0.98935, -93.3170,1.10000,0.90000,1.10000,0.90000
126479,'RAINEY7W    ', 138.0000,1, 102, 159, 142,0.98968, -93.7940,1.10000,0.90000,1.10000,0.90000
126480,'RAINEY8E    ', 138.0000,1, 102, 159, 142,0.98023, -89.7235,1.10000,0.90000,1.10000,0.90000
126481,'RAINEY8W    ', 138.0000,1, 102, 159, 142,0.98337, -91.4395,1.10000,0.90000,1.10000,0.90000
126482,'RAINEY9E    ', 138.0000,1, 102, 159, 142,0.99571, -91.2355,1.10000,0.90000,1.10000,0.90000
126483,'S CREEK W   ', 138.0000,1, 102, 159, 142,0.97585, -82.0285,1.10000,0.90000,1.10000,0.90000
126517,'REACM51     ', 345.0000,1, 102, 169, 142,1.02772, -88.4392,1.10000,0.90000,1.10000,0.90000
126518,'REACM52     ', 345.0000,1, 102, 169, 142,1.02772, -88.4392,1.10000,0.90000,1.10000,0.90000
126543,'W49 ST 1    ', 138.0000,1, 102, 159, 142,0.99287, -93.0838,1.10000,0.90000,1.10000,0.90000
126544,'W49 ST 2    ', 138.0000,1, 102, 159, 142,0.99725, -93.0125,1.10000,0.90000,1.10000,0.90000
126545,'W49 ST 3    ', 138.0000,1, 102, 159, 142,0.99837, -93.5704,1.10000,0.90000,1.10000,0.90000
126546,'W49 ST 4    ', 138.0000,1, 102, 159, 142,0.99592, -93.3594,1.10000,0.90000,1.10000,0.90000
126547,'W49 ST 5    ', 138.0000,1, 102, 159, 142,0.99674, -94.0174,1.10000,0.90000,1.10000,0.90000
126582,'EAST RIVER  ',  69.0000,1, 102, 159, 142,0.96853, -90.2883,1.10000,0.90000,1.10000,0.90000
126588,'E74 GT1     ',  13.8000,2, 102, 159, 142,0.98631,-108.0808,1.10000,0.90000,1.10000,0.90000
126590,'GOWANUS 41SR', 345.0000,1, 102, 159, 142,1.01940, -89.4220,1.10000,0.90000,1.10000,0.90000
126591,'GOWANUS 42SR', 345.0000,1, 102, 159, 142,1.01940, -89.4220,1.10000,0.90000,1.10000,0.90000
126595,'FRESH KILLS ',  33.0000,1, 102, 159, 142,0.97680, -98.9520,1.10000,0.90000,1.10000,0.90000
126600,'REAC71      ', 345.0000,1, 102, 169, 142,1.02251, -88.3975,1.10000,0.90000,1.10000,0.90000
126601,'REAC72      ', 345.0000,1, 102, 169, 142,1.02260, -88.3275,1.10000,0.90000,1.10000,0.90000
126614,'NQ 27KV     ',  27.0000,1, 102, 159, 142,0.97653, -89.3833,1.10000,0.90000,1.10000,0.90000
126628,'MHTX1       ', 138.0000,1, 102, 159, 142,0.99308, -90.6217,1.10000,0.90000,1.10000,0.90000
126631,'MHTX2       ', 138.0000,1, 102, 159, 142,0.99223, -90.6168,1.10000,0.90000,1.10000,0.90000
126634,'MHTX3       ', 138.0000,1, 102, 159, 142,0.99960, -90.6101,1.10000,0.90000,1.10000,0.90000
126637,'MHTX4       ', 138.0000,1, 102, 159, 142,0.99248, -90.6092,1.10000,0.90000,1.10000,0.90000
126641,'MOTT HAVEN  ', 345.0000,1, 102, 159, 142,1.02008, -89.1508,1.10000,0.90000,1.10000,0.90000
126642,'RAINEY WEST ', 345.0000,1, 102, 159, 142,1.01878, -89.3602,1.10000,0.90000,1.10000,0.90000
126643,'RAINEY EAST ', 345.0000,1, 102, 159, 142,1.01878, -89.3602,1.10000,0.90000,1.10000,0.90000
126644,'FARRAGUT WES', 345.0000,1, 102, 159, 142,1.01935, -89.6082,1.10000,0.90000,1.10000,0.90000
126645,'FARRAGUT EAS', 345.0000,1, 102, 159, 142,1.01935, -89.6082,1.10000,0.90000,1.10000,0.90000
126650,'AK 3        ',  22.0000,2, 102, 159, 142,1.00000, -80.2237,1.10000,0.90000,1.10000,0.90000
126651,'IND PT 2    ',  22.0000,2, 102, 167, 142,1.00000, -61.6672,1.10000,0.90000,1.10000,0.90000
126652,'RAV 3       ',  22.0000,2, 102, 159, 142,1.00000, -85.1175,1.10000,0.90000,1.10000,0.90000
126653,'AK 2        ',  20.0000,2, 102, 159, 142,1.00000, -86.3476,1.10000,0.90000,1.10000,0.90000
126654,'AST 3       ',  20.0000,2, 102, 159, 142,1.00000, -81.0967,1.10000,0.90000,1.10000,0.90000
126656,'AST 5       ',  20.0000,2, 102, 159, 142,1.00000, -83.4355,1.10000,0.90000,1.10000,0.90000
126657,'RAV 1       ',  20.0000,2, 102, 159, 142,1.00000, -84.7522,1.10000,0.90000,1.10000,0.90000
126658,'RAV 2       ',  20.0000,2, 102, 159, 142,1.00000, -87.8137,1.10000,0.90000,1.10000,0.90000
126659,'COGENGT1    ',  13.8000,2, 102, 159, 142,1.00000, -81.3146,1.10000,0.90000,1.10000,0.90000
126660,'COGENGT2    ',  13.8000,2, 102, 159, 142,1.00000, -81.1701,1.10000,0.90000,1.10000,0.90000
126662,'COGENGT4    ',  13.8000,2, 102, 159, 142,1.00000, -81.1619,1.10000,0.90000,1.10000,0.90000
126664,'COGENST1    ',  13.8000,2, 102, 159, 142,1.00000, -81.3204,1.10000,0.90000,1.10000,0.90000
126672,'SCS138-E    ', 138.0000,1, 102, 159, 142,0.97861, -83.1347,1.10000,0.90000,1.10000,0.90000
126673,'SCS138-W    ', 138.0000,1, 102, 159, 142,0.97777, -83.3054,1.10000,0.90000,1.10000,0.90000
126674,'JFK G1      ',  13.8000,2, 102, 159, 142,1.00000, -80.3700,1.10000,0.90000,1.10000,0.90000
126676,'JFK G3      ',  13.8000,2, 102, 159, 142,1.00000, -80.2478,1.10000,0.90000,1.10000,0.90000
126683,'YORK CT2    ',  13.8000,2, 102, 159, 142,1.00000, -79.9536,1.10000,0.90000,1.10000,0.90000
126684,'YORK ST1    ',  13.8000,2, 102, 159, 142,1.00000, -83.7228,1.10000,0.90000,1.10000,0.90000
126686,'YORK CT1    ',  13.8000,2, 102, 159, 142,1.00000, -80.0189,1.10000,0.90000,1.10000,0.90000
126692,'SCS18-G4    ',  18.0000,2, 102, 159, 142,1.00000, -77.9803,1.10000,0.90000,1.10000,0.90000
126710,'SCS18-G5    ',  18.0000,2, 102, 159, 142,1.00000, -77.8000,1.10000,0.90000,1.10000,0.90000
126711,'SCS18-G6    ',  18.0000,2, 102, 159, 142,1.00000, -78.3395,1.10000,0.90000,1.10000,0.90000
126724,'GOETH 13    ',  13.6000,1, 102, 159, 142,0.98627, -95.9906,1.10000,0.90000,1.10000,0.90000
126733,'PLEASANTVILE',  13.8000,1, 102, 169, 142,0.99681, -83.5430,1.10000,0.90000,1.10000,0.90000
126736,'RNY 2EGT    ',  13.0000,2, 102, 159, 142,1.00000, -90.7827,1.10000,0.90000,1.10000,0.90000
126737,'RNY 7EGT    ',  13.0000,2, 102, 159, 142,1.00000, -89.4127,1.10000,0.90000,1.10000,0.90000
126738,'RNY 7WGT    ',  13.0000,2, 102, 159, 142,1.00000, -90.8374,1.10000,0.90000,1.10000,0.90000
126774,'TA1         ', 138.0000,1, 102, 167, 142,0.97909, -76.1465,1.10000,0.90000,1.10000,0.90000
126780,'SCK-PARW    ', 138.0000,1, 102, 159, 142,0.99633, -84.6876,1.10000,0.90000,1.10000,0.90000
126781,'SCK-PARE    ', 138.0000,1, 102, 159, 142,0.99616, -84.7121,1.10000,0.90000,1.10000,0.90000
126819,'RN-CR PAR   ', 138.0000,1, 102, 159, 142,0.99027, -89.3762,1.10000,0.90000,1.10000,0.90000
126847,'ACADEMY     ', 345.0000,1, 102, 159, 142,1.00188, -78.6879,1.10000,0.90000,1.10000,0.90000
126865,'RAV3 60M    ', 345.0000,1, 102, 159, 142,1.01885, -89.3449,1.10000,0.90000,1.10000,0.90000
126866,'RAV3 60L    ', 345.0000,1, 102, 159, 142,1.01885, -89.3449,1.10000,0.90000,1.10000,0.90000
126879,'SUGARLOAF   ', 345.0000,1, 102, 176, 142,1.01395, -67.5593,1.10000,0.90000,1.10000,0.90000
127100,'B44         ', 345.0000,1, 102, 159, 142,1.01935, -89.6082,1.10000,0.90000,1.10000,0.90000
128245,'ANNEX PAR   ', 138.0000,1, 102, 159, 142,0.98924, -91.8930,1.10000,0.90000,1.10000,0.90000
128248,'ANNTRHIGH   ', 345.0000,1, 102, 159, 142,1.02015, -89.4358,1.10000,0.90000,1.10000,0.90000
128252,'BAYONNE     ', 345.0000,1, 102, 159, 142,1.00065, -83.3779,1.10000,0.90000,1.10000,0.90000
128253,'BAY_G1      ',  13.8000,2, 102, 159, 142,1.00000, -70.1326,1.10000,0.90000,1.10000,0.90000
128257,'BAYONNE     ', 138.0000,1, 102, 159, 142,0.98424, -73.2369,1.10000,0.90000,1.10000,0.90000
128699,'MILLW345_C1 ', 345.0000,1, 102, 167, 142,1.00366, -73.9801,1.10000,0.90000,1.10000,0.90000
128700,'MILLW345_C2 ', 345.0000,1, 102, 167, 142,1.00561, -73.9803,1.10000,0.90000,1.10000,0.90000
128701,'ASTOR REAC  ', 345.0000,1, 102, 170, 147,1.02016, -89.4339,1.10000,0.90000,1.10000,0.90000
128822,'E.G.C.-1    ', 345.0000,1, 102, 156, 143,1.00039, -78.3085,1.10000,0.90000,1.10000,0.90000
128823,'E.G.C.-2    ', 345.0000,1, 102, 156, 143,1.00033, -78.2582,1.10000,0.90000,1.10000,0.90000
128824,'EGC DUM     ', 345.0000,1, 102, 156, 143,1.00106, -79.8446,1.10000,0.90000,1.10000,0.90000
128825,'EGC PAR     ', 345.0000,1, 102, 156, 143,1.00106, -79.8446,1.10000,0.90000,1.10000,0.90000
128830,'HMP HRBR    ', 345.0000,1, 102, 156, 143,1.00469, -79.1853,1.10000,0.90000,1.10000,0.90000
128835,'SHORE RD    ', 345.0000,1, 102, 156, 143,1.00646, -79.4864,1.10000,0.90000,1.10000,0.90000
128842,'NEPTCONV    ', 345.0000,1, 102, 156, 143,1.01304, -77.5507,1.10000,0.90000,1.10000,0.90000
128847,'NWBRG       ', 345.0000,1, 102, 156, 143,1.01325, -77.7770,1.10000,0.90000,1.10000,0.90000
128900,'BARETG1     ',  20.0000,2, 102, 156, 143,1.00000, -77.9590,1.10000,0.90000,1.10000,0.90000
129024,'NRTPTG1     ',  22.0000,2, 102, 156, 143,1.00000, -77.7682,1.10000,0.90000,1.10000,0.90000
129071,'CAITH-GT    ',  16.5000,2, 102, 156, 143,1.00000, -79.6847,1.10000,0.90000,1.10000,0.90000
129076,'HOLTS1-5    ',  13.8000,2, 102, 156, 143,1.00000, -80.1264,1.10000,0.90000,1.10000,0.90000
129081,'HOLT6-10    ',  13.8000,2, 102, 156, 143,1.00000, -84.8756,1.10000,0.90000,1.10000,0.90000
129092,'PTJEFG3     ',  20.0000,2, 102, 156, 143,1.00000, -82.2741,1.10000,0.90000,1.10000,0.90000
129109,'WADNGRV3    ',  13.8000,2, 102, 156, 143,1.00000, -83.2007,1.10000,0.90000,1.10000,0.90000
129270,'E.G.C.      ', 138.0000,1, 102, 156, 143,1.00106, -83.9758,1.10000,0.90000,1.10000,0.90000
129281,'GLNWD GT    ', 138.0000,1, 102, 156, 143,1.00050, -84.0840,1.10000,0.90000,1.10000,0.90000
129293,'SHORE RD    ', 138.0000,1, 102, 156, 143,0.99935, -84.1080,1.10000,0.90000,1.10000,0.90000
129310,'NEWBRGE     ', 138.0000,1, 102, 156, 143,1.00264, -84.2008,1.10000,0.90000,1.10000,0.90000
129343,'NRTHPT P    ', 138.0000,1, 102, 156, 143,1.04422, -73.2134,1.10000,0.90000,1.10000,0.90000
129458,'SHOREHAM1   ', 138.0000,1, 102, 156, 143,1.00395, -87.4373,1.10000,0.90000,1.10000,0.90000
129469,'WADNGRV1    ', 138.0000,1, 102, 156, 143,1.00434, -87.3319,1.10000,0.90000,1.10000,0.90000
129621,'CALPINE     ',  69.0000,1, 102, 156, 143,1.01824, -88.0805,1.10000,0.90000,1.10000,0.90000
130650,'FRACCSC     ', 345.0000,1, 102, 151, 144,1.01189, -47.5719,1.10000,0.90000,1.10000,0.90000
130750,'COOPC345    ', 345.0000,1, 102, 151, 144,1.01824, -57.4662,1.10000,0.90000,1.10000,0.90000
130751,'CNDGUA_T    ', 230.0000,1, 102, 150, 144,1.02260, -56.2225,1.10000,0.90000,1.10000,0.90000
130753,'FRASR345    ', 345.0000,1, 102, 151, 144,1.01540, -50.1886,1.10000,0.90000,1.10000,0.90000
130754,'SOMERSET345 ', 345.0000,1, 102, 149, 144,1.02836, -37.6303,1.10000,0.90000,1.10000,0.90000
130755,'OAKDL345    ', 345.0000,1, 102, 150, 144,1.02468, -51.8984,1.10000,0.90000,1.10000,0.90000
130756,'STOLE345    ', 345.0000,1, 102, 149, 144,0.99696, -55.2373,1.10000,0.90000,1.10000,0.90000
130757,'WATRC345    ', 345.0000,1, 102, 150, 144,1.04934, -54.2673,1.10000,0.90000,1.10000,0.90000
130758,'WOODA345    ', 345.0000,1, 102, 174, 144,0.99757, -70.8156,1.10000,0.90000,1.10000,0.90000
130759,'WOODB345    ', 345.0000,1, 102, 174, 144,0.99976, -71.8012,1.10000,0.90000,1.10000,0.90000
130761,'AVOCA230    ', 230.0000,1, 102, 150, 144,1.02059, -56.3750,1.10000,0.90000,1.10000,0.90000
130762,'GARDV230    ', 230.0000,1, 102, 149, 144,1.03755, -52.1083,1.10000,0.90000,1.10000,0.90000
130763,'HILSD230    ', 230.0000,1, 102, 150, 144,1.00678, -56.2981,1.10000,0.90000,1.10000,0.90000
130764,'MEYER230    ', 230.0000,1, 102, 150, 144,1.02269, -55.7408,1.10000,0.90000,1.10000,0.90000
130765,'OAKDL230    ', 230.0000,1, 102, 150, 144,0.99695, -56.1879,1.10000,0.90000,1.10000,0.90000
130766,'ROBIN230    ', 230.0000,1, 102, 149, 144,1.03027, -44.2696,1.10000,0.90000,1.10000,0.90000
130767,'STOLE230    ', 230.0000,1, 102, 149, 144,1.03145, -50.5640,1.10000,0.90000,1.10000,0.90000
130768,'WATRC230    ', 230.0000,1, 102, 150, 144,1.00476, -56.0116,1.10000,0.90000,1.10000,0.90000
130770,'SHLDN230    ', 230.0000,1, 102, 150, 144,1.02661, -51.5539,1.10000,0.90000,1.10000,0.90000
130772,'SHRED230    ', 230.0000,1, 102, 150, 144,1.00217, -56.1390,1.10000,0.90000,1.10000,0.90000
130805,'FRASR115    ', 115.0000,1, 102, 151, 144,0.99218, -54.4606,1.10000,0.90000,1.10000,0.90000
130806,'GARDV115    ', 115.0000,1, 102, 149, 144,1.04421, -54.3563,1.10000,0.90000,1.10000,0.90000
130807,'WESTOVER115 ', 115.0000,1, 102, 150, 144,0.99129, -56.6600,1.10000,0.90000,1.10000,0.90000
130814,'HILSD115    ', 115.0000,1, 102, 150, 144,0.97022, -59.0584,1.10000,0.90000,1.10000,0.90000
130815,'HINMN115    ', 115.0000,1, 102, 149, 144,1.02240, -47.5172,1.10000,0.90000,1.10000,0.90000
130824,'CLARKCRNS115', 115.0000,1, 102, 150, 144,1.03665, -52.6430,1.10000,0.90000,1.10000,0.90000
130826,'MEYER115    ', 115.0000,1, 102, 150, 144,1.00611, -57.5850,1.10000,0.90000,1.10000,0.90000
130830,'MONTR115    ', 115.0000,1, 102, 150, 144,0.98359, -59.6513,1.10000,0.90000,1.10000,0.90000
130836,'N.WAV115    ', 115.0000,1, 102, 150, 144,0.96991, -60.4600,1.10000,0.90000,1.10000,0.90000
130838,'OAKDL115    ', 115.0000,1, 102, 150, 144,0.99033, -56.2705,1.10000,0.90000,1.10000,0.90000
130841,'SHLDN_GE_G1 ',   0.5700,2, 102, 150, 144,1.00000, -50.5347,1.10000,0.90000,1.10000,0.90000
130845,'RIDGT115    ', 115.0000,1, 102, 150, 144,0.98014, -59.8712,1.10000,0.90000,1.10000,0.90000
130846,'ROBIN115    ', 115.0000,1, 102, 149, 144,1.02383, -45.8866,1.10000,0.90000,1.10000,0.90000
130857,'STOLE115    ', 115.0000,1, 102, 149, 144,1.04713, -55.9764,1.10000,0.90000,1.10000,0.90000
130865,'WOODS115    ', 115.0000,1, 102, 174, 144,0.98438, -76.0590,1.10000,0.90000,1.10000,0.90000
130872,'CANADIAS    ', 115.0000,1, 102, 150, 144,1.03767, -56.3089,1.10000,0.90000,1.10000,0.90000
130873,'SOMERSET24  ',  24.0000,2, 102, 149, 144,1.00000, -35.6921,1.10000,0.90000,1.10000,0.90000
130876,'HILSD230L69 ', 230.0000,1, 102, 150, 144,1.00678, -56.2981,1.10000,0.90000,1.10000,0.90000
131103,'BINCO13$    ',  13.8000,2, 102, 150, 144,1.00000, -47.7013,1.10000,0.90000,1.10000,0.90000
131122,'WTHRS230    ', 230.0000,1, 102, 150, 144,1.02477, -52.4920,1.10000,0.90000,1.10000,0.90000
131123,'WTHRSFLD    ', 230.0000,1, 102, 150, 144,1.02417, -52.4499,1.10000,0.90000,1.10000,0.90000
131126,'WTHRS_GE_G1 ',   0.5700,2, 102, 150, 144,1.00000, -50.8859,1.10000,0.90000,1.10000,0.90000
131154,'STONY RIDGE ', 230.0000,1, 102, 150, 144,1.01001, -57.1072,1.10000,0.90000,1.10000,0.90000
131155,'STONY RIDGE ', 115.0000,1, 102, 150, 144,1.02302, -59.0309,1.10000,0.90000,1.10000,0.90000
131157,'CLARKCRNS   ', 345.0000,1, 102, 150, 144,1.01109, -48.9704,1.10000,0.90000,1.10000,0.90000
131241,'GRNDG115    ', 115.0000,1, 102, 150, 144,1.00099, -56.7821,1.10000,0.90000,1.10000,0.90000
131393,'INDEC S$    ',  13.8000,2, 102, 150, 144,1.00000, -45.5316,1.10000,0.90000,1.10000,0.90000
131611,'HARIS115    ', 115.0000,1, 102, 149, 144,1.02092, -46.2860,1.10000,0.90000,1.10000,0.90000
131613,'LEA34115    ', 115.0000,1, 102, 149, 144,1.02129, -46.1520,1.10000,0.90000,1.10000,0.90000
131646,'LEA 1G $    ',  13.8000,2, 102, 149, 144,1.00000, -39.9228,1.10000,0.90000,1.10000,0.90000
131648,'LEA 3G $    ',  13.8000,2, 102, 149, 144,1.00000, -39.8477,1.10000,0.90000,1.10000,0.90000
131649,'LEA 4S $    ',  13.8000,2, 102, 149, 144,1.00000, -36.4619,1.10000,0.90000,1.10000,0.90000
131753,'NOEND115    ', 115.0000,1, 102, 163, 144,1.01007, -17.8420,1.10000,0.90000,1.10000,0.90000
131831,'NOEND1G$    ',  13.8000,2, 102, 163, 144,1.00000, -12.4230,1.10000,0.90000,1.10000,0.90000